geometry optimzed in LAMMPS
_audit_creation_date              2020-11-30 
_audit_creation_method            'lammps2cif' 
_symmetry_space_group_name_H-M    'P1' 
_symmetry_Int_Tables_number       1 
_symmetry_cell_setting            triclinic 
loop_ 
_symmetry_equiv_pos_as_xyz 
  x,y,z 
_cell_length_a                    38.26713893 
_cell_length_b                    37.861047480366985 
_cell_length_c                    37.79749348557191 
_cell_angle_alpha                 89.95924487477608 
_cell_angle_beta                  89.9706753171724 
_cell_angle_gamma                 90.01221471070411 
loop_ 
_atom_site_label 
_atom_site_type_symbol 
_atom_site_fract_x 
_atom_site_fract_y 
_atom_site_fract_z 
_atom_site_charge 
O1          O  0.00599695  0.06575682  0.09080948    -0.79300
O2          O  0.99764238  0.06845906  0.41066175    -0.80900
O3          O  0.06115342  0.09848852  0.98742530    -0.77900
O4          O  0.44662516  0.10421422  0.00073741    -0.76300
O5          O  0.40189748  0.06462127  0.00784099    -0.78100
O6          O  0.10346730  0.05570276  0.98586407    -0.79000
O7          O  0.99200409  0.10600123  0.45775173    -0.80300
O8          O  0.00297097  0.10504269  0.04466733    -0.80600
Eu9        Eu  0.00133823  0.07016712  0.99080140     2.39200
O10         O  0.46369969  0.04089126  0.46614018    -0.88100
O11         O  0.03938410  0.03845189  0.02810530    -0.91700
C12         C  0.00435199  0.09743659  0.07780093     1.03000
C13         C  0.99308300  0.09943480  0.42434903     1.02800
C14         C  0.09351733  0.08783805  0.98554193     1.02700
C15         C  0.41413305  0.09660646  0.00463565     1.00600
H16         H  0.04891975  0.06065770  0.45939484     0.30300
O17         O  0.03563487  0.04318292  0.47226464    -1.00500
H18         H  0.45606089  0.05396451  0.05397238     0.30400
O19         O  0.46858960  0.03827397  0.03832721    -1.03000
O20         O  0.99657367  0.45197205  0.39276527    -0.80300
O21         O  0.01208201  0.44770952  0.10433864    -0.79800
O22         O  0.10532677  0.01379480  0.45102488    -0.78200
O23         O  0.40125725  0.00308779  0.43978516    -0.81600
O24         O  0.40711946  0.00042912  0.07007351    -0.79400
O25         O  0.10817147  0.00840388  0.04615505    -0.78100
O26         O  0.06844101  0.40973870  0.99808935    -0.79600
O27         O  0.45347025  0.39423883  0.00021951    -0.81500
O28         O  0.10576788  0.45681220  0.99301448    -0.78300
O29         O  0.40836222  0.43401710  0.00319636    -0.81000
O30         O  0.06518444  0.01336846  0.40624548    -0.76700
O31         O  0.06894161  0.00886962  0.09191392    -0.76700
O32         O  0.45395368  0.00126627  0.10788944    -0.76400
O33         O  0.44467665  0.00573796  0.39812294    -0.79900
O34         O  0.00595833  0.40670219  0.43180701    -0.79300
O35         O  0.01120564  0.40300216  0.06348916    -0.77600
Eu36       Eu  0.00556087  0.00748052  0.43211435     2.39800
Eu37       Eu  0.00813791  0.00393325  0.06899645     2.39600
Eu38       Eu  0.07427026  0.00088429  0.99339523     2.38400
Eu39       Eu  0.42765095  0.00315570  0.00785041     2.39900
Eu40       Eu  0.00671041  0.42965178  0.00237126     2.39800
O41         O  0.47231263  0.46255236  0.03653772    -0.92000
O42         O  0.03526086  0.47112731  0.45719133    -0.90900
C43         C  0.00172864  0.41923874  0.40005733     1.03100
C44         C  0.01258649  0.41493605  0.09581785     1.01900
C45         C  0.09692452  0.01473628  0.41824141     1.01200
C46         C  0.41246155  0.00421941  0.40712662     1.02500
C47         C  0.42088866  0.99986524  0.10142321     1.02200
C48         C  0.10039828  0.00976224  0.07901838     1.01000
C49         C  0.09931193  0.42369378  0.99503190     1.01100
C50         C  0.42075140  0.40200856  0.00204235     1.03700
H51         H  0.05838487  0.45642433  0.04773919     0.31100
O52         O  0.04149267  0.46969498  0.03420514    -1.04200
H53         H  0.45526625  0.45100076  0.44343154     0.33100
O54         O  0.46866186  0.46525629  0.45975227    -1.06800
O55         O  0.00507497  0.18487319  0.15115622    -0.79300
O56         O  0.98666702  0.18715019  0.35035253    -0.80900
O57         O  0.04634453  0.14043351  0.25129605    -0.77900
O58         O  0.43333163  0.15604634  0.24768838    -0.76300
O59         O  0.39510808  0.20254934  0.24671570    -0.78100
O60         O  0.09204220  0.17919499  0.25574115    -0.79000
O61         O  0.98706195  0.14508540  0.30695857    -0.80300
O62         O  0.99477387  0.14424533  0.19473711    -0.80600
Eu63       Eu  0.99247544  0.17535751  0.25068995     2.39200
O64         O  0.46138034  0.21692992  0.28443106    -0.88100
O65         O  0.03479724  0.20672879  0.21878039    -0.91700
C66         C  0.00028561  0.15294179  0.16237934     1.03000
C67         C  0.98603186  0.15470430  0.33951790     1.02800
C68         C  0.07920815  0.14772929  0.25267367     1.02700
C69         C  0.40200968  0.16928695  0.24679727     1.00600
H70         H  0.04005451  0.19114039  0.30597176     0.30300
O71         O  0.02802282  0.20705873  0.29015235    -1.00500
H72         H  0.44915353  0.20175534  0.19744380     0.30400
O73         O  0.46407318  0.21574517  0.21254654    -1.03000
O74         O  0.99679193  0.30278786  0.35087113    -0.80300
O75         O  0.01161804  0.29851302  0.14658795    -0.79800
O76         O  0.08962116  0.23909810  0.31998889    -0.78200
O77         O  0.40361308  0.25660821  0.30829815    -0.81600
O78         O  0.40626086  0.25567592  0.18547374    -0.79400
O79         O  0.10475327  0.23924412  0.20429848    -0.78100
O80         O  0.06624340  0.34192118  0.25429134    -0.79600
O81         O  0.45309488  0.35526704  0.24574269    -0.81500
O82         O  0.10349869  0.29503268  0.26110517    -0.78300
O83         O  0.40695244  0.31671588  0.24708126    -0.81000
O84         O  0.04342633  0.24348847  0.35818286    -0.76700
O85         O  0.06701038  0.24110679  0.15733573    -0.76700
O86         O  0.45103512  0.24840313  0.14571722    -0.76400
O87         O  0.44662179  0.25429251  0.35040209    -0.79900
O88         O  0.00496374  0.34650958  0.30958554    -0.79300
O89         O  0.01034090  0.34357802  0.18711442    -0.77600
Eu90       Eu  0.99155094  0.24593678  0.32136077     2.39800
Eu91       Eu  0.00602888  0.24393700  0.17896371     2.39600
Eu92       Eu  0.06917239  0.24010429  0.25800878     2.38400
Eu93       Eu  0.43066150  0.25596110  0.24704427     2.39900
Eu94       Eu  0.00567634  0.31884190  0.24922333     2.39800
O95         O  0.47195552  0.28558007  0.21124004    -0.92000
O96         O  0.03260826  0.27897919  0.28869490    -0.90900
C97         C  0.00175163  0.33519403  0.34194874     1.03100
C98         C  0.01184871  0.33135365  0.15486465     1.01900
C99         C  0.07621229  0.24096462  0.35139697     1.01200
C100        C  0.41464265  0.25615048  0.34096557     1.03300
C101        C  0.41841132  0.25225478  0.15351664     1.02200
C102        C  0.09805898  0.24015411  0.17092630     1.01000
C103        C  0.09709719  0.32841845  0.25862876     1.01100
C104        C  0.42001309  0.34825289  0.24659846     1.03700
H105        H  0.05755540  0.29133526  0.20449259     0.31100
O106        O  0.04051925  0.27816848  0.21794919    -1.04200
H107        H  0.45608611  0.30389377  0.29751175     0.33100
O108        O  0.46944122  0.28788676  0.28293501    -1.06800
O109        O  0.34732407  0.49374693  0.18883501    -0.79300
O110        O  0.14739760  0.49989767  0.19835723    -0.80900
O111        O  0.24559408  0.43279029  0.15929015    -0.77900
O112        O  0.24961751  0.04886257  0.14228776    -0.76300
O113        O  0.25117814  0.09440722  0.18202107    -0.78100
O114        O  0.24566321  0.39272137  0.20467904    -0.79000
O115        O  0.18748203  0.49690353  0.15352645    -0.80300
O116        O  0.30255848  0.49219854  0.14858583    -0.80600
Eu117      Eu  0.24676790  0.49469913  0.18070458     2.39200
O118        O  0.21451120  0.03378313  0.21035939    -0.88100
O119        O  0.28243161  0.46048103  0.21795217    -0.91700
C120        C  0.33533129  0.49244862  0.15659207     1.03000
C121        C  0.15576808  0.49879821  0.16549480     1.02800
C122        C  0.24543853  0.40092486  0.17190851     1.02700
C123        C  0.25013506  0.08184980  0.15014556     1.00600
H124        H  0.19553988  0.44709062  0.20552493     0.30300
O125        O  0.21102535  0.46207889  0.21899099    -1.00500
H126        H  0.30127168  0.04406034  0.19569177     0.30400
O127        O  0.28614784  0.03067792  0.21112298    -1.03000
O128        O  0.15117764  0.50645857  0.31229828    -0.80300
O129        O  0.34760744  0.49867415  0.31191785    -0.79800
O130        O  0.18693145  0.40053106  0.25835435    -0.78200
O131        O  0.19580996  0.10150475  0.24199843    -0.81600
O132        O  0.31199070  0.09733691  0.24353027    -0.79400
O133        O  0.30336399  0.39733652  0.25619916    -0.78100
O134        O  0.24730575  0.44897969  0.35524918    -0.79600
O135        O  0.24816997  0.06371456  0.34411028    -0.81500
O136        O  0.24601214  0.40339734  0.31578913    -0.78300
O137        O  0.25246413  0.10333928  0.29838957    -0.81000
O138        O  0.14703405  0.44549220  0.25733030    -0.76700
O139        O  0.34800216  0.43741832  0.25120836    -0.76700
O140        O  0.35193692  0.05263129  0.24898571    -0.76400
O141        O  0.15184445  0.06048994  0.24554100    -0.79900
O142        O  0.19520222  0.50831949  0.35293755    -0.79300
O143        O  0.30356822  0.50147081  0.35284163    -0.77600
Eu144      Eu  0.17874615  0.50147337  0.25396252     2.39800
Eu145      Eu  0.32114460  0.49686897  0.25019845     2.39600
Eu146      Eu  0.24630767  0.42800679  0.25680133     2.38400
Eu147      Eu  0.25205836  0.07048840  0.24314771     2.39900
Eu148      Eu  0.24993583  0.50357920  0.32116073     2.39800
O149        O  0.28321508  0.03495428  0.28326345    -0.92000
O150        O  0.21199190  0.46577741  0.29142036    -0.90900
C151        C  0.16282093  0.50841744  0.34425224     1.03100
C152        C  0.33577940  0.49989548  0.34434338     1.01900
C153        C  0.15516411  0.41250590  0.25824496     1.01200
C154        C  0.16331200  0.09263274  0.24379591     1.03300
C155        C  0.34375139  0.08545189  0.24611569     1.02200
C156        C  0.33607629  0.40549609  0.25354387     1.01000
C157        C  0.24617767  0.41598953  0.34734789     1.01100
C158        C  0.25090694  0.09537112  0.33143567     1.03700
H159        H  0.29865056  0.44997259  0.30421616     0.31100
O160        O  0.28468022  0.46435379  0.28856849    -1.04200
H161        H  0.19927966  0.05475922  0.29441045     0.33100
O162        O  0.21357994  0.03862456  0.28094573    -1.06800
O163        O  0.19600516  0.14769605  0.50709191    -0.79300
O164        O  0.18584647  0.34589675  0.48906215    -0.80900
O165        O  0.14620321  0.25129391  0.05442499    -0.77900
O166        O  0.14886286  0.24093762  0.43942940    -0.76300
O167        O  0.19154605  0.23829464  0.39704764    -0.78100
O168        O  0.18615379  0.25023615  0.09945812    -0.79000
O169        O  0.14554834  0.30142855  0.49272451    -0.80300
O170        O  0.15115636  0.18741725  0.50539376    -0.80600
Eu171      Eu  0.17762304  0.24618166  0.49803345     2.39200
O172        O  0.21065021  0.28057627  0.45867147    -0.88100
O173        O  0.20996110  0.21870642  0.03641707    -0.91700
C174        C  0.16345832  0.15575190  0.50791892     1.03000
C175        C  0.15401168  0.33418064  0.48991720     1.02800
C176        C  0.15453109  0.24938343  0.08732090     1.02700
C177        C  0.15950726  0.23847878  0.40697928     1.00600
H178        H  0.19469797  0.30470697  0.05087394     0.30300
O179        O  0.20992974  0.29015182  0.03664670    -1.00500
H180        H  0.19860300  0.19233223  0.45058020     0.30400
O181        O  0.21261114  0.20900131  0.46360864    -1.03000
O182        O  0.30183120  0.35126509  0.48978883    -0.80300
O183        O  0.30485708  0.14931282  0.49890368    -0.79800
O184        O  0.24384952  0.31458786  0.09932648    -0.78200
O185        O  0.24391420  0.29791428  0.39200961    -0.81600
O186        O  0.25103007  0.18301561  0.40223626    -0.79400
O187        O  0.24558680  0.19918164  0.10384889    -0.78100
O188        O  0.34630212  0.25117628  0.06372994    -0.79600
O189        O  0.34559979  0.25153192  0.43204969    -0.81500
O190        O  0.30149804  0.25403252  0.10395295    -0.78300
O191        O  0.30076216  0.24544477  0.39236011    -0.81000
O192        O  0.24438716  0.35636044  0.05565832    -0.76700
O193        O  0.24469492  0.15514661  0.06223193    -0.76700
O194        O  0.25027671  0.14431872  0.44852410    -0.76400
O195        O  0.24345825  0.34330019  0.43183109    -0.79900
O196        O  0.34702977  0.31159260  0.49203209    -0.79300
O197        O  0.34863716  0.19034672  0.49463954    -0.77600
Eu198      Eu  0.24550697  0.31936417  0.49137689     2.39800
Eu199      Eu  0.25050774  0.17994548  0.50186889     2.39600
Eu200      Eu  0.24509059  0.25482361  0.07270838     2.38400
Eu201      Eu  0.24744655  0.24329169  0.42593522     2.39900
Eu202      Eu  0.32125989  0.25105984  0.49408800     2.39800
O203        O  0.28569723  0.21172268  0.46234316    -0.92000
O204        O  0.28309052  0.28845918  0.03771665    -0.90900
C205        C  0.33471925  0.34350653  0.49066108     1.03100
C206        C  0.33694358  0.15802618  0.49610258     1.01900
C207        C  0.24360651  0.34688644  0.08801965     1.01200
C208        C  0.24318739  0.33086535  0.40016655     1.03300
C209        C  0.25106416  0.15152924  0.41536024     1.02200
C210        C  0.24558083  0.16657065  0.09462102     1.01000
C211        C  0.33423582  0.25251797  0.09581917     1.01100
C212        C  0.33312316  0.24918816  0.40003710     1.03700
H213        H  0.29405949  0.20283835  0.05267783     0.31100
O214        O  0.28038991  0.21779857  0.03730656    -1.04200
H215        H  0.29580640  0.29772436  0.44158355     0.33100
O216        O  0.28256831  0.28311799  0.45769879    -1.06800
C217        C  0.24910543  0.10642895  0.11987122    -0.15600
C218        C  0.24707464  0.14138381  0.12426909    -0.30800
H219        H  0.24938319  0.09539406  0.09333480     0.13400
H220        H  0.24673209  0.15227907  0.15087987     0.14000
C221        C  0.24504462  0.37106924  0.14763312    -0.15600
C222        C  0.24252016  0.37602199  0.11298986    -0.30800
H223        H  0.24709696  0.34454350  0.15849747     0.13400
H224        H  0.24049028  0.40260394  0.10224322     0.14000
C225        C  0.24513987  0.39093938  0.37666338    -0.15600
C226        C  0.24265427  0.35606650  0.37096592    -0.30800
H227        H  0.24678652  0.40139286  0.40338556     0.13400
H228        H  0.24113939  0.34561600  0.34423032     0.14000
C229        C  0.25208719  0.12535693  0.35600244    -0.15600
C230        C  0.25148142  0.12119914  0.39116225    -0.30800
H231        H  0.25308293  0.15172896  0.34464881     0.13400
H232        H  0.25065892  0.09486126  0.40259732     0.14000
C233        C  0.37115979  0.14539322  0.24573436    -0.15600
C234        C  0.37397546  0.11008308  0.24603771    -0.30800
H235        H  0.34535234  0.15734716  0.24503640     0.13400
H236        H  0.39986958  0.09832324  0.24698435     0.14000
C237        C  0.39568333  0.37894246  0.24738591    -0.15600
C238        C  0.36102964  0.37539402  0.25296361    -0.30800
H239        H  0.40671372  0.40514555  0.24378489     0.13400
H240        H  0.35017799  0.34913976  0.25677144     0.14000
C241        C  0.10361198  0.11754865  0.25022081    -0.15600
C242        C  0.13805480  0.12211732  0.24494841    -0.30800
H243        H  0.09291155  0.09103606  0.25227965     0.13400
H244        H  0.14850045  0.14870487  0.24247424     0.14000
C245        C  0.12792793  0.35236863  0.26034920    -0.15600
C246        C  0.12504269  0.38771419  0.25843387    -0.30800
H247        H  0.15367875  0.34051112  0.26267836     0.13400
H248        H  0.09916802  0.39937359  0.25638157     0.14000
C249        C  0.39390019  0.25233634  0.12287699    -0.15600
C250        C  0.35890290  0.25248295  0.12631361    -0.30800
H251        H  0.40523451  0.25174149  0.09651225     0.13400
H252        H  0.34762029  0.25280638  0.15269870     0.14000
C253        C  0.12854910  0.24123553  0.14693929    -0.15600
C254        C  0.12487463  0.24609806  0.11199962    -0.30800
H255        H  0.15451616  0.23941201  0.15842811     0.13400
H256        H  0.09881977  0.24795293  0.10070462     0.14000
C257        C  0.09983832  0.24058791  0.38212844    -0.15600
C258        C  0.13420762  0.23601697  0.37798783    -0.30800
H259        H  0.08894808  0.24496260  0.40832579     0.13400
H260        H  0.14481379  0.23175905  0.35163802     0.14000
C261        C  0.39037651  0.25743008  0.37128645    -0.15600
C262        C  0.35636683  0.25079481  0.36880487    -0.30800
H263        H  0.40166895  0.26176319  0.39732955     0.13400
H264        H  0.34500532  0.24598378  0.34289252     0.14000
C265        C  0.39653549  0.37115244  0.00268972    -0.15600
C266        C  0.36178254  0.37429276  0.00622372    -0.30800
H267        H  0.40783386  0.34495764  0.99999149     0.13400
H268        H  0.34785002  0.40037442  0.48907167     0.14000
C269        C  0.39050616  0.12792358  0.00514351    -0.15600
C270        C  0.35558331  0.12587584  0.00472528    -0.30800
H271        H  0.40250385  0.15147009  0.51926930     0.13400
H272        H  0.34347441  0.09990017  0.00463452     0.14000
C273        C  0.13013862  0.40064518  0.99434520    -0.15600
C274        C  0.12684423  0.36598779  0.99863139    -0.30800
H275        H  0.15584526  0.41236822  0.99082569     0.13400
H276        H  0.09816625  0.34791379  0.48854732     0.14000
C277        C  0.12150445  0.14470968  0.99795781    -0.15600
C278        C  0.12274553  0.11288374  0.98339585    -0.30800
H279        H  0.09696526  0.15436814  0.00876488     0.13400
H280        H  0.09325837  0.15603871  0.51373943     0.14000
C281        C  0.38837421  0.00372181  0.37622315    -0.15600
C282        C  0.35363400  0.00190974  0.37830625    -0.30800
H283        H  0.40570951  0.50305148  0.34767484     0.13400
H284        H  0.34149978  0.00097733  0.40430109     0.14000
C285        C  0.12300734  0.01029767  0.35894102    -0.15600
C286        C  0.12665610  0.01632309  0.39351017    -0.30800
H287        H  0.09702637  0.00627802  0.34802199     0.13400
H288        H  0.09247446  0.50755592  0.34255711     0.14000
C289        C  0.12731041  0.00048880  0.13634980    -0.15600
C290        C  0.13044812  0.01092736  0.10296804    -0.30800
H291        H  0.10170563  0.99332957  0.14662201     0.13400
H292        H  0.15501963  0.50758614  0.09431744     0.14000
C293        C  0.39737876  0.99762293  0.13261802    -0.15600
C294        C  0.36307964  0.99111790  0.12915606    -0.30800
H295        H  0.40842620  0.00171289  0.15876736     0.13400
H296        H  0.34800105  0.49146814  0.09935775     0.14000
C297        C  0.98932529  0.12995772  0.40026209    -0.15600
C298        C  0.98547758  0.12551720  0.36529951    -0.30800
H299        H  0.49742567  0.15726484  0.40568555     0.13400
H300        H  0.98397814  0.09891474  0.35457729     0.14000
C301        C  0.00380729  0.36001207  0.37221243    -0.15600
C302        C  0.00238547  0.39518730  0.36903746    -0.30800
H303        H  0.51026021  0.35164823  0.39525566     0.13400
H304        H  0.00025281  0.40683638  0.34283347     0.14000
C305        C  0.01421243  0.39061400  0.12660795    -0.15600
C306        C  0.01310790  0.35549562  0.12390114    -0.30800
H307        H  0.01517557  0.40240209  0.15280877     0.13400
H308        H  0.51256425  0.34200095  0.09513079     0.14000
C309        C  0.00388714  0.12774085  0.10222708    -0.15600
C310        C  0.00120706  0.12336096  0.13723631    -0.30800
H311        H  0.00512801  0.15419474  0.09109108     0.13400
H312        H  0.49649811  0.09646590  0.15176810     0.14000
O313        O  0.00128978  0.04571544  0.61104159    -0.79300
O314        O  0.99837908  0.04429524  0.89060354    -0.80900
O315        O  0.04814785  0.10621712  0.51360219    -0.77900
O316        O  0.44789998  0.10460355  0.50732226    -0.76300
O317        O  0.40356051  0.06417131  0.50322692    -0.78100
O318        O  0.09417249  0.06778028  0.51101628    -0.79000
O319        O  0.99646676  0.09100722  0.92888228    -0.80300
O320        O  0.99775405  0.09221505  0.57243551    -0.80600
Eu321      Eu  0.99579544  0.07015384  0.51151841     2.39200
O322        O  0.46044566  0.03631403  0.96660040    -0.88100
O323        O  0.03436850  0.03444605  0.54419641    -0.91700
C324        C  0.00004241  0.07906788  0.60385686     1.03000
C325        C  0.99624046  0.07730162  0.89744656     1.02800
C326        C  0.08096339  0.09918173  0.51298718     1.02700
C327        C  0.41562093  0.09629979  0.50602628     1.00600
H328        H  0.05068587  0.04743828  0.93979962     0.30300
O329        O  0.03736017  0.03369849  0.95659204    -1.00500
H330        H  0.45248752  0.05092096  0.55337558     0.30400
O331        O  0.46665705  0.03650742  0.53797842    -1.03000
O332        O  0.99747496  0.44755595  0.90131230    -0.80300
O333        O  0.01028403  0.43885494  0.59616445    -0.79800
O334        O  0.10118142  0.99677180  0.93558746    -0.78200
O335        O  0.39412254  0.00246311  0.95265555    -0.81600
O336        O  0.40360794  0.99978976  0.56139495    -0.79400
O337        O  0.10292187  0.00354007  0.56059253    -0.78100
O338        O  0.06637611  0.40588231  0.48978147    -0.79600
O339        O  0.45165949  0.39520426  0.49028056    -0.81500
O340        O  0.10480459  0.45216590  0.48834316    -0.78300
O341        O  0.40570447  0.43357191  0.49635578    -0.81000
O342        O  0.05725385  0.99244329  0.89507007    -0.76700
O343        O  0.06249293  0.99460250  0.60434193    -0.76700
O344        O  0.44818155  0.99954309  0.60219081    -0.76400
O345        O  0.43351725  0.99918533  0.90712500    -0.79900
O346        O  0.00562145  0.40307673  0.94166014    -0.79300
O347        O  0.01050511  0.39894894  0.55044507    -0.77600
Eu348      Eu  0.00240391  0.99269637  0.92733972     2.39800
Eu349      Eu  0.00340998  0.99103449  0.57557318     2.39600
Eu350      Eu  0.07270681  0.00651703  0.50503948     2.38400
Eu351      Eu  0.42946418  0.00266510  0.50083742     2.39900
Eu352      Eu  0.00657764  0.43044504  0.49372047     2.39800
O353        O  0.47127856  0.45881483  0.53037162    -0.92000
O354        O  0.03494441  0.46924250  0.96361173    -0.90900
C355        C  0.00195673  0.41508270  0.90961192     1.03100
C356        C  0.01095770  0.40688085  0.58365108     1.01900
C357        C  0.08962083  0.99404891  0.90380838     1.01200
C358        C  0.40225098  0.00064404  0.91958506     1.02500
C359        C  0.41552617  0.99906006  0.59356962     1.02200
C360        C  0.09425329  0.99936977  0.59302478     1.01000
C361        C  0.09764164  0.41889097  0.48833472     1.01100
C362        C  0.41862859  0.40209901  0.49298393     1.03700
H363        H  0.05793971  0.45353486  0.54217025     0.31100
O364        O  0.04124359  0.46783278  0.52942480    -1.04200
H365        H  0.45616870  0.44994846  0.95027000     0.33100
O366        O  0.47015276  0.46448056  0.96578142    -1.06800
O367        O  0.00941714  0.19762108  0.64989880    -0.79300
O368        O  0.99069460  0.19247730  0.85116220    -0.80900
O369        O  0.05520624  0.14840102  0.75379432    -0.77900
O370        O  0.43760689  0.15729093  0.75960806    -0.76300
O371        O  0.39764496  0.20236432  0.76122499    -0.78100
O372        O  0.09866210  0.18972862  0.75996781    -0.79000
O373        O  0.99415871  0.14962314  0.80870172    -0.80300
O374        O  0.00275634  0.15279306  0.69025998    -0.80600
Eu375      Eu  0.99904872  0.17868665  0.74968332     2.39200
O376        O  0.46516860  0.22075195  0.79335859    -0.88100
O377        O  0.03852886  0.21653530  0.71910744    -0.91700
C378        C  0.00628749  0.16466898  0.65840281     1.03000
C379        C  0.99156439  0.16030858  0.84119987     1.02800
C380        C  0.08749202  0.15724152  0.75761703     1.02700
C381        C  0.40594006  0.16939301  0.76067555     1.00600
H382        H  0.04554773  0.19782943  0.80507157     0.30300
O383        O  0.03256329  0.21296612  0.78926811    -1.00500
H384        H  0.44458093  0.20372937  0.70911774     0.30400
O385        O  0.46068705  0.21837148  0.72222765    -1.03000
O386        O  0.99473319  0.30012539  0.85779343    -0.80300
O387        O  0.00953872  0.31638825  0.65559655    -0.79800
O388        O  0.09374447  0.25073317  0.81944900    -0.78200
O389        O  0.40693624  0.25890328  0.82070596    -0.81600
O390        O  0.39545075  0.25778152  0.70333683    -0.79400
O391        O  0.10781430  0.25210560  0.70599592    -0.78100
O392        O  0.05177854  0.35390958  0.76375036    -0.79600
O393        O  0.45275554  0.35875585  0.75321941    -0.81500
O394        O  0.09570690  0.31254798  0.76286780    -0.78300
O395        O  0.40740235  0.31934273  0.75442374    -0.81000
O396        O  0.04733953  0.24756927  0.85740472    -0.76700
O397        O  0.07037140  0.25503295  0.65891657    -0.76700
O398        O  0.43355670  0.25249994  0.65686061    -0.76400
O399        O  0.45331215  0.25777238  0.85886685    -0.79900
O400        O  0.99763827  0.34608109  0.81874803    -0.79300
O401        O  0.00231821  0.35578961  0.70102777    -0.77600
Eu402      Eu  0.99393347  0.24799461  0.82196570     2.39800
Eu403      Eu  0.00882889  0.25516643  0.68067474     2.39600
Eu404      Eu  0.07141135  0.25076768  0.75900298     2.38400
Eu405      Eu  0.42963715  0.25815610  0.75885641     2.39900
Eu406      Eu  0.99783158  0.32271893  0.75670080     2.39800
O407        O  0.46541574  0.28954261  0.71953104    -0.92000
O408        O  0.03214004  0.28538796  0.79215460    -0.90900
C409        C  0.99689737  0.33301389  0.85054740     1.03100
C410        C  0.00649036  0.34822914  0.66802975     1.01900
C411        C  0.08024045  0.24941880  0.85069459     1.01200
C412        C  0.42039126  0.25826585  0.85224498     1.03300
C413        C  0.40223786  0.25547946  0.66989862     1.02200
C414        C  0.10145095  0.25361223  0.67260696     1.01000
C415        C  0.08399599  0.34485503  0.76433601     1.01100
C416        C  0.42018724  0.35098542  0.75279187     1.03700
H417        H  0.05407772  0.30494907  0.71014152     0.31100
O418        O  0.03851311  0.28924463  0.72267055    -1.04200
H419        H  0.45685013  0.30864417  0.80718669     0.33100
O420        O  0.46915337  0.29273881  0.79157245    -1.06800
O421        O  0.34729853  0.49622112  0.68764779    -0.79300
O422        O  0.14750116  0.49833851  0.69691338    -0.80900
O423        O  0.24757555  0.44161622  0.64816016    -0.77900
O424        O  0.24641189  0.07146550  0.66100548    -0.76300
O425        O  0.25426836  0.10938688  0.70758838    -0.78100
O426        O  0.25093721  0.39908572  0.69093271    -0.79000
O427        O  0.18757858  0.50257468  0.65199828    -0.80300
O428        O  0.30274566  0.50032629  0.64717793    -0.80600
Eu429      Eu  0.24687287  0.50106809  0.67857991     2.39200
O430        O  0.21756063  0.04170081  0.72502078    -0.88100
O431        O  0.28468348  0.46465120  0.71160414    -0.91700
C432        C  0.33535125  0.49781515  0.65531567     1.03000
C433        C  0.15588824  0.50091781  0.66400629     1.02800
C434        C  0.24964061  0.40893171  0.65872430     1.02700
C435        C  0.24972848  0.10295756  0.67458922     1.00600
H436        H  0.19756007  0.44850675  0.69857236     0.30300
O437        O  0.21223016  0.46315503  0.71329025    -1.00500
H438        H  0.30181297  0.05340840  0.70188412     0.30400
O439        O  0.28789692  0.03824454  0.71689440    -1.03000
O440        O  0.15016503  0.49694755  0.81271921    -0.80300
O441        O  0.34850195  0.49446445  0.81204458    -0.79800
O442        O  0.19669774  0.39510413  0.74811631    -0.78200
O443        O  0.20381058  0.10577596  0.76356755    -0.81600
O444        O  0.31906949  0.09691670  0.75842595    -0.79400
O445        O  0.30537378  0.39724751  0.74405438    -0.78100
O446        O  0.24895080  0.43125641  0.84404644    -0.79600
O447        O  0.26319708  0.05011829  0.85994418    -0.81500
O448        O  0.25091688  0.39183827  0.79855368    -0.78300
O449        O  0.26072231  0.09620623  0.82112687    -0.81000
O450        O  0.15250602  0.43509378  0.75518527    -0.76700
O451        O  0.34928691  0.43805444  0.74678492    -0.76700
O452        O  0.35806155  0.05226077  0.74762200    -0.76400
O453        O  0.15861530  0.06598751  0.76296771    -0.79900
O454        O  0.19436560  0.49291987  0.85314760    -0.79300
O455        O  0.30444124  0.48975193  0.85287178    -0.77600
Eu456      Eu  0.17811382  0.49581921  0.75354703     2.39800
Eu457      Eu  0.32175990  0.49657383  0.74972194     2.39600
Eu458      Eu  0.25021980  0.42785543  0.74664265     2.38400
Eu459      Eu  0.25871099  0.07284408  0.75987495     2.39900
Eu460      Eu  0.24997197  0.49175886  0.82137375     2.39800
O461        O  0.29598123  0.03283195  0.78761724    -0.92000
O462        O  0.21350579  0.45757766  0.78620146    -0.90900
C463        C  0.16188984  0.49570077  0.84481213     1.03100
C464        C  0.33680705  0.49169956  0.84454621     1.01900
C465        C  0.16456406  0.40313304  0.75249844     1.01200
C466        C  0.17101155  0.09806099  0.76364981     1.03300
C467        C  0.35039544  0.08486705  0.75345489     1.02200
C468        C  0.33765546  0.40606512  0.74496978     1.01000
C469        C  0.24982230  0.39964091  0.83136189     1.01100
C470        C  0.26191421  0.08316985  0.85278524     1.03700
H471        H  0.30127752  0.44322643  0.79825704     0.31100
O472        O  0.28695047  0.45910487  0.78448054    -1.04200
H473        H  0.20984750  0.05094775  0.81198043     0.33100
O474        O  0.22264132  0.03693742  0.79502962    -1.06800
O475        O  0.18362466  0.15601006  0.99914720    -0.79300
O476        O  0.18828110  0.35245396  0.99935315    -0.80900
O477        O  0.14982560  0.25085482  0.55576244    -0.77900
O478        O  0.15110281  0.25506355  0.93866863    -0.76300
O479        O  0.19541912  0.25635121  0.89814276    -0.78100
O480        O  0.19142679  0.25427408  0.59942908    -0.79000
O481        O  0.14677441  0.30904313  0.99825518    -0.80300
O482        O  0.14387669  0.20114434  0.99812945    -0.80600
Eu483      Eu  0.17718868  0.25435524  0.99825304     2.39200
O484        O  0.21248009  0.29109016  0.96366896    -0.88100
O485        O  0.21518660  0.21594481  0.53694844    -0.91700
C486        C  0.15190233  0.16844157  0.99835640     1.03000
C487        C  0.15619869  0.34135413  0.99860158     1.02800
C488        C  0.15920862  0.25311281  0.58837380     1.02700
C489        C  0.16295146  0.25582106  0.90667479     1.00600
H490        H  0.19787762  0.30076638  0.54487634     0.30300
O491        O  0.21285509  0.28522910  0.53142284    -1.00500
H492        H  0.19794061  0.20371642  0.94783875     0.30400
O493        O  0.21216576  0.21786354  0.96345502    -1.03000
O494        O  0.30440272  0.35310568  0.00529003    -0.80300
O495        O  0.29921738  0.14926513  0.00325215    -0.79800
O496        O  0.24894163  0.31789902  0.59054807    -0.78200
O497        O  0.25003659  0.31442469  0.90451027    -0.81600
O498        O  0.25102087  0.19890895  0.90050076    -0.79400
O499        O  0.25112663  0.19533069  0.60184973    -0.78100
O500        O  0.35141706  0.25462227  0.55176298    -0.79600
O501        O  0.34880738  0.25206849  0.94336543    -0.81500
O502        O  0.31127125  0.25678778  0.59700003    -0.78300
O503        O  0.30562956  0.25446897  0.90146758    -0.81000
O504        O  0.24420081  0.35575501  0.54342004    -0.76700
O505        O  0.25252173  0.15260670  0.55907662    -0.76700
O506        O  0.24918194  0.15450394  0.94172202    -0.76400
O507        O  0.24938620  0.35630964  0.94797066    -0.79900
O508        O  0.34813586  0.31164454  0.00483412    -0.79300
O509        O  0.34436780  0.18926558  0.00377331    -0.77600
Eu510      Eu  0.24731146  0.32423198  0.00186399     2.39800
Eu511      Eu  0.24435163  0.18146729  0.00159564     2.39600
Eu512      Eu  0.25074758  0.25443877  0.57052445     2.38400
Eu513      Eu  0.24973457  0.25497093  0.93101345     2.39900
Eu514      Eu  0.32011719  0.25155655  0.00328806     2.39800
O515        O  0.28251503  0.21737310  0.96775763    -0.92000
O516        O  0.28348390  0.28710393  0.52855127    -0.90900
C517        C  0.33685880  0.34408265  0.00553290     1.03100
C518        C  0.33190827  0.15715066  0.00385341     1.01900
C519        C  0.24622565  0.34930325  0.57660191     1.01200
C520        C  0.24982740  0.34668485  0.91565926     1.03300
C521        C  0.25107598  0.16622355  0.90950603     1.02200
C522        C  0.25187873  0.16253124  0.59140493     1.01000
C523        C  0.34319836  0.25619429  0.58494301     1.01100
C524        C  0.33782231  0.25341583  0.91081175     1.03700
H525        H  0.30176742  0.20409673  0.54932734     0.31100
O526        O  0.28665931  0.21814685  0.53448278    -1.04200
H527        H  0.30013729  0.30399833  0.95336539     0.33100
O528        O  0.28531348  0.28906822  0.96766420    -1.06800
C529        C  0.24871856  0.13475259  0.65150397    -0.15600
C530        C  0.25200783  0.13240981  0.61645707    -0.30800
H531        H  0.24656733  0.16061844  0.66376672     0.13400
H532        H  0.25472572  0.10628119  0.60483031     0.14000
C533        C  0.25089883  0.37892245  0.63400043    -0.15600
C534        C  0.24520436  0.38102162  0.59940174    -0.30800
H535        H  0.25607704  0.35311808  0.64554618     0.13400
H536        H  0.23999528  0.40657262  0.58737413     0.14000
C537        C  0.24971343  0.36997128  0.85574595    -0.15600
C538        C  0.24997375  0.37547544  0.89043291    -0.30800
H539        H  0.24961842  0.34332234  0.84504479     0.13400
H540        H  0.25015743  0.40219829  0.90099622     0.14000
C541        C  0.26069929  0.10714545  0.88346871    -0.15600
C542        C  0.25330179  0.14141471  0.87969996    -0.30800
H543        H  0.26470805  0.09614673  0.90972905     0.13400
H544        H  0.24943285  0.15223138  0.85333522     0.14000
C545        C  0.37635397  0.14431405  0.76078272    -0.15600
C546        C  0.38024719  0.10966493  0.75446891    -0.30800
H547        H  0.35034963  0.15504331  0.76502265     0.13400
H548        H  0.40619897  0.09901230  0.74968950     0.14000
C549        C  0.39634602  0.38107592  0.75027403    -0.15600
C550        C  0.36223177  0.37656443  0.74493789    -0.30800
H551        H  0.40715734  0.40750033  0.75296034     0.13400
H552        H  0.35156466  0.35010192  0.74204667     0.14000
C553        C  0.11217789  0.12664773  0.75921404    -0.15600
C554        C  0.14686886  0.12917577  0.76404797    -0.30800
H555        H  0.10091486  0.10050769  0.75584803     0.13400
H556        H  0.15840093  0.15523330  0.76704896     0.14000
C557        C  0.10822695  0.37492107  0.76565014    -0.15600
C558        C  0.14102982  0.37250870  0.75436514    -0.30800
H559        H  0.09782634  0.40053659  0.77329610     0.13400
H560        H  0.15129758  0.34695375  0.74635343     0.14000
C561        C  0.37120546  0.25609058  0.64557372    -0.15600
C562        C  0.37365777  0.25676475  0.60994285    -0.30800
H563        H  0.34541272  0.25598540  0.65759751     0.13400
H564        H  0.39954853  0.25701638  0.59811956     0.14000
C565        C  0.13251707  0.25347705  0.64891821    -0.15600
C566        C  0.12952882  0.25448265  0.61360079    -0.30800
H567        H  0.15831361  0.25200140  0.66082478     0.13400
H568        H  0.10352718  0.25559943  0.60206717     0.14000
C569        C  0.10394567  0.25026353  0.88124147    -0.15600
C570        C  0.13828749  0.25566615  0.87705294    -0.30800
H571        H  0.09298240  0.24662001  0.90752169     0.13400
H572        H  0.14911195  0.25925058  0.85069142     0.14000
C573        C  0.39714084  0.25761499  0.88366333    -0.15600
C574        C  0.36251379  0.25402350  0.88068983    -0.30800
H575        H  0.40888009  0.25947177  0.90976947     0.13400
H576        H  0.35113870  0.25218826  0.85439446     0.14000
C577        C  0.39441606  0.37111734  0.49233185    -0.15600
C578        C  0.35931754  0.37415155  0.49043308    -0.30800
H579        H  0.40600270  0.34494059  0.49326157     0.13400
H580        H  0.35063801  0.40057451  0.00875530     0.14000
C581        C  0.39224685  0.12719400  0.50791968    -0.15600
C582        C  0.36046721  0.12732913  0.49397155    -0.30800
H583        H  0.40264370  0.15388120  0.00479458     0.13400
H584        H  0.35008473  0.10300775  0.48286889     0.14000
C585        C  0.12796713  0.39447058  0.48734076    -0.15600
C586        C  0.12428727  0.35920095  0.48810855    -0.30800
H587        H  0.15400927  0.40590765  0.48710335     0.13400
H588        H  0.10095179  0.35456775  0.00189016     0.14000
C589        C  0.13933330  0.12580673  0.51129516    -0.15600
C590        C  0.10466716  0.12974858  0.51335213    -0.30800
H591        H  0.15063977  0.09946939  0.51106671     0.13400
H592        H  0.14738558  0.10340402  0.97261426     0.14000
C593        C  0.37359670  0.99985222  0.89404118    -0.15600
C594        C  0.37954575  0.99620244  0.85913909    -0.30800
H595        H  0.40574351  0.50673316  0.85083156     0.13400
H596        H  0.40602235  0.99403134  0.84895149     0.14000
C597        C  0.14938603  0.99365532  0.88072243    -0.15600
C598        C  0.11482771  0.99337631  0.87498006    -0.30800
H599        H  0.15983501  0.99308038  0.90745310     0.13400
H600        H  0.09177586  0.50730570  0.84521828     0.14000
C601        C  0.12160619  0.00549947  0.65222417    -0.15600
C602        C  0.12423252  0.00021892  0.61747013    -0.30800
H603        H  0.09592990  0.00804055  0.66427797     0.13400
H604        H  0.15561774  0.50643434  0.59229922     0.14000
C605        C  0.39077942  0.99813118  0.62378441    -0.15600
C606        C  0.35579958  0.99943098  0.62051837    -0.30800
H607        H  0.40218067  0.99736302  0.65010553     0.13400
H608        H  0.34834133  0.50340080  0.59845194     0.14000
C609        C  0.99407385  0.10058145  0.86652474    -0.15600
C610        C  0.99027704  0.13521746  0.87049044    -0.30800
H611        H  0.49054824  0.09887297  0.84816738     0.13400
H612        H  0.98765005  0.14626484  0.89692524     0.14000
C613        C  0.99873214  0.35630600  0.88174478    -0.15600
C614        C  0.00243862  0.39113226  0.87896500    -0.30800
H615        H  0.52873139  0.35486694  0.89886839     0.13400
H616        H  0.00396682  0.40305620  0.85282776     0.14000
C617        C  0.01190243  0.37620681  0.60834270    -0.15600
C618        C  0.00754448  0.37906731  0.64352533    -0.30800
H619        H  0.01500361  0.35010942  0.59681091     0.13400
H620        H  0.49930827  0.39741255  0.64706022     0.14000
C621        C  0.00156999  0.10400747  0.63389946    -0.15600
C622        C  0.00587143  0.13902563  0.62899730    -0.30800
H623        H  0.99950576  0.09330906  0.66050042     0.13400
H624        H  0.49408250  0.09767349  0.66138587     0.14000
O625        O  0.00706397  0.55984940  0.10228395    -0.79300
O626        O  0.98982437  0.56555587  0.40083438    -0.80900
O627        O  0.05106489  0.60735218  0.99976206    -0.77900
O628        O  0.44170082  0.59775551  0.00603569    -0.76300
O629        O  0.40168247  0.55244211  0.00353956    -0.78100
O630        O  0.09575866  0.56741554  0.99494274    -0.79000
O631        O  0.99131332  0.60581271  0.44584870    -0.80300
O632        O  0.99896908  0.60375689  0.06133183    -0.80600
Eu633      Eu  0.99400184  0.57549951  0.00272550     2.39200
O634        O  0.46363492  0.53581855  0.46756108    -0.88100
O635        O  0.03540591  0.54203366  0.03451167    -0.91700
C636        C  0.00399835  0.59241211  0.09322364     1.03000
C637        C  0.98986983  0.59748780  0.41290264     1.02800
C638        C  0.08388309  0.59909622  0.99732060     1.02700
C639        C  0.40996335  0.58544647  0.00487240     1.00600
H640        H  0.04317846  0.55841634  0.44551045     0.30300
O641        O  0.03079049  0.54223800  0.46077233    -1.00500
H642        H  0.45330614  0.54689997  0.05445789     0.30400
O643        O  0.46805375  0.53361927  0.03856634    -1.03000
O644        O  0.00610782  0.95194715  0.39747439    -0.80300
O645        O  0.01277767  0.94660100  0.10132125    -0.79800
O646        O  0.09254392  0.50872687  0.43079934    -0.78200
O647        O  0.40499973  0.49727316  0.43722403    -0.81600
O648        O  0.40683136  0.49325004  0.06444723    -0.79400
O649        O  0.10509214  0.50897442  0.04898519    -0.78100
O650        O  0.06709597  0.90087610  0.99743082    -0.79600
O651        O  0.44146143  0.90219039  0.00762921    -0.81500
O652        O  0.10661467  0.94580722  0.99339560    -0.78300
O653        O  0.39839949  0.94417314  0.01056410    -0.81000
O654        O  0.04668953  0.50836640  0.39196063    -0.76700
O655        O  0.06740054  0.50433376  0.09570971    -0.76700
O656        O  0.45184391  0.49551022  0.10437611    -0.76400
O657        O  0.44876524  0.50557431  0.39662905    -0.79900
O658        O  0.00684473  0.90529857  0.43590829    -0.79300
O659        O  0.01533761  0.90260175  0.05985492    -0.77600
Eu660      Eu  0.99373235  0.50601989  0.42720309     2.39800
Eu661      Eu  0.00665733  0.50295060  0.07289997     2.39600
Eu662      Eu  0.06991165  0.50891502  0.99515803     2.38400
Eu663      Eu  0.43235904  0.49585025  0.00278309     2.39900
Eu664      Eu  0.00902155  0.92806792  0.00256235     2.39800
O665        O  0.46753660  0.96780691  0.03931756    -0.92000
O666        O  0.04283697  0.97063044  0.46421701    -0.90900
C667        C  0.00555745  0.91853491  0.40458684     1.03100
C668        C  0.01544393  0.91380186  0.09171624     1.01900
C669        C  0.07945272  0.50884119  0.39928520     1.01200
C670        C  0.41674409  0.50135691  0.40495056     1.02500
C671        C  0.41907775  0.49359174  0.09662605     1.02200
C672        C  0.09847142  0.50634374  0.08223177     1.01000
C673        C  0.09847406  0.91294947  0.99426197     1.01100
C674        C  0.40939709  0.91171712  0.01033538     1.03700
H675        H  0.06055388  0.95388953  0.04947391     0.31100
O676        O  0.04415792  0.96680312  0.03495144    -1.04200
H677        H  0.45259046  0.95380110  0.44893475     0.33100
O678        O  0.46658777  0.96874675  0.46404044    -1.06800
O679        O  0.00866610  0.70995882  0.14202321    -0.79300
O680        O  0.99020145  0.68512996  0.34187682    -0.80900
O681        O  0.06596195  0.65960121  0.24337759    -0.77900
O682        O  0.43532167  0.65742084  0.24411025    -0.76300
O683        O  0.39686800  0.70373121  0.24715614    -0.78100
O684        O  0.10442298  0.70484781  0.25415073    -0.79000
O685        O  0.99861325  0.64715993  0.29548473    -0.80300
O686        O  0.00665902  0.66272342  0.17995448    -0.80600
Eu687      Eu  0.00329557  0.68299902  0.24158101     2.39200
O688        O  0.46254080  0.71698878  0.28337951    -0.88100
O689        O  0.04002400  0.72508508  0.21463651    -0.91700
C690        C  0.00777832  0.67661097  0.14868883     1.03000
C691        C  0.99351062  0.65387446  0.32853206     1.02800
C692        C  0.09744194  0.67224483  0.24833339     1.02700
C693        C  0.40386517  0.67045810  0.24532628     1.00600
H694        H  0.04687344  0.70091042  0.29910736     0.30300
O695        O  0.03312829  0.71661125  0.28455537    -1.00500
H696        H  0.45197494  0.71194783  0.19599393     0.30400
O697        O  0.46659387  0.72427429  0.21273887    -1.03000
O698        O  0.99200780  0.80088052  0.35630545    -0.80300
O699        O  0.01025640  0.82624835  0.15977198    -0.79800
O700        O  0.09164295  0.75372540  0.31873329    -0.78200
O701        O  0.40231459  0.75665737  0.31070570    -0.81600
O702        O  0.40614064  0.76314003  0.18866126    -0.79400
O703        O  0.10576048  0.75949576  0.20232112    -0.78100
O704        O  0.04940356  0.85889533  0.26716378    -0.79600
O705        O  0.45264276  0.85745520  0.26032684    -0.81500
O706        O  0.09424901  0.81923899  0.26362250    -0.78300
O707        O  0.40691104  0.81891526  0.25426781    -0.81000
O708        O  0.04547249  0.74405234  0.35611168    -0.76700
O709        O  0.06847104  0.76106583  0.15500055    -0.76700
O710        O  0.45181409  0.76439522  0.14930298    -0.76400
O711        O  0.44436757  0.74689798  0.35272666    -0.79900
O712        O  0.99489847  0.84746373  0.31796639    -0.79300
O713        O  0.00314587  0.86300630  0.20723506    -0.77600
Eu714      Eu  0.99211632  0.74644411  0.32038327     2.39800
Eu715      Eu  0.00791208  0.76350258  0.17810392     2.39600
Eu716      Eu  0.07057920  0.75839282  0.25724770     2.38400
Eu717      Eu  0.43070330  0.75871173  0.25030599     2.39900
Eu718      Eu  0.99775563  0.82469402  0.25784447     2.39800
O719        O  0.47121726  0.79451179  0.21943476    -0.92000
O720        O  0.03044843  0.78712575  0.29380044    -0.90900
C721        C  0.99385797  0.83423152  0.34930414     1.03100
C722        C  0.00789790  0.85722688  0.17421847     1.01900
C723        C  0.07828977  0.74830166  0.34974653     1.01200
C724        C  0.41275614  0.75185842  0.34318656     1.03300
C725        C  0.41886193  0.76437810  0.15671984     1.02200
C726        C  0.09943069  0.75946913  0.16872735     1.01000
C727        C  0.08181305  0.85096860  0.26670418     1.01100
C728        C  0.41980989  0.85028608  0.25778435     1.03700
H729        H  0.05400813  0.81282032  0.20957279     0.31100
O730        O  0.03845528  0.79624671  0.22096192    -1.04200
H731        H  0.45373456  0.80234859  0.30662113     0.33100
O732        O  0.46748670  0.78787296  0.29087971    -1.06800
O733        O  0.34827897  0.99365657  0.19129203    -0.79300
O734        O  0.14719152  0.99883124  0.19342418    -0.80900
O735        O  0.24621178  0.93541372  0.15048524    -0.77900
O736        O  0.24769242  0.54983955  0.14703577    -0.76300
O737        O  0.25147482  0.59623007  0.18588743    -0.78100
O738        O  0.24868328  0.89602254  0.19618629    -0.79000
O739        O  0.18866306  0.99851791  0.14973350    -0.80300
O740        O  0.30544700  0.99093391  0.14876646    -0.80600
Eu741      Eu  0.24825956  0.99477808  0.17671822     2.39200
O742        O  0.21464388  0.53437078  0.21565628    -0.88100
O743        O  0.28502660  0.96150395  0.21435013    -0.91700
C744        C  0.33763690  0.99169735  0.15865135     1.03000
C745        C  0.15660493  0.99926962  0.16104242     1.02800
C746        C  0.24716692  0.90372908  0.16312364     1.02700
C747        C  0.24987939  0.58301287  0.15427939     1.00600
H748        H  0.19700123  0.94650879  0.19964138     0.30300
O749        O  0.21176843  0.96186924  0.21346580    -1.00500
H750        H  0.29897368  0.54495920  0.19766291     0.30400
O751        O  0.28431802  0.53188673  0.21386141    -1.03000
O752        O  0.14462781  0.00504642  0.30180001    -0.80300
O753        O  0.34300150  0.00032998  0.31460239    -0.79800
O754        O  0.19426984  0.89855115  0.25185234    -0.78200
O755        O  0.19095835  0.60167738  0.24542510    -0.81600
O756        O  0.31234723  0.59887913  0.24561231    -0.79400
O757        O  0.30352678  0.89773081  0.25600374    -0.78100
O758        O  0.23967518  0.94449646  0.35051253    -0.79600
O759        O  0.25615438  0.56064549  0.34851946    -0.81500
O760        O  0.24233919  0.90179303  0.30777252    -0.78300
O761        O  0.25553527  0.60380946  0.30608596    -0.81000
O762        O  0.15118378  0.94043189  0.25378164    -0.76700
O763        O  0.34782815  0.93817775  0.25540624    -0.76700
O764        O  0.35211780  0.55349772  0.24782696    -0.76400
O765        O  0.14985417  0.55764442  0.24803767    -0.79900
O766        O  0.18465168  0.00783378  0.34653591    -0.79300
O767        O  0.29769523  0.00208235  0.35442191    -0.77600
Eu768      Eu  0.17789142  0.00057250  0.24797148     2.39800
Eu769      Eu  0.32028580  0.99694241  0.25137023     2.39600
Eu770      Eu  0.24834189  0.92946483  0.25115913     2.38400
Eu771      Eu  0.25136430  0.57327605  0.24742732     2.39900
Eu772      Eu  0.24445454  0.00299610  0.32051013     2.39800
O773        O  0.28635221  0.53635206  0.28333263    -0.92000
O774        O  0.21112674  0.96528833  0.28552948    -0.90900
C775        C  0.15289882  0.00771676  0.33449832     1.03100
C776        C  0.33033745  0.00147378  0.34674218     1.01900
C777        C  0.16234121  0.90802159  0.25387014     1.01200
C778        C  0.15871152  0.59018588  0.24556380     1.03300
C779        C  0.34416898  0.58657613  0.24630404     1.02200
C780        C  0.33604653  0.90620404  0.25676645     1.01000
C781        C  0.23956071  0.91190419  0.33992081     1.01100
C782        C  0.25725249  0.59301153  0.33868119     1.03700
H783        H  0.29521099  0.95047172  0.30418475     0.31100
O784        O  0.28205852  0.96515926  0.28814834    -1.04200
H785        H  0.20137069  0.55588754  0.30029741     0.33100
O786        O  0.21512416  0.54015394  0.28581017    -1.06800
O787        O  0.20121953  0.64741296  0.48811438    -0.79300
O788        O  0.18515667  0.84715047  0.50614857    -0.80900
O789        O  0.14994049  0.74459065  0.05192162    -0.77900
O790        O  0.15034267  0.74931219  0.43904714    -0.76300
O791        O  0.19289399  0.76027896  0.39811414    -0.78100
O792        O  0.18902502  0.75322918  0.09687510    -0.79000
O793        O  0.14634587  0.80150034  0.50019633    -0.80300
O794        O  0.15566171  0.68625631  0.49325519    -0.80600
Eu795      Eu  0.17953771  0.74635507  0.49763067     2.39200
O796        O  0.21117691  0.79025367  0.46797162    -0.88100
O797        O  0.21927708  0.71224986  0.03499747    -0.91700
C798        C  0.16829786  0.65480087  0.49000460     1.03000
C799        C  0.15397857  0.83453693  0.50271023     1.02800
C800        C  0.15755459  0.74938107  0.08484172     1.02700
C801        C  0.16097653  0.75496004  0.40703161     1.00600
H802        H  0.19558130  0.79858788  0.04305498     0.30300
O803        O  0.21191880  0.78421222  0.02995487    -1.00500
H804        H  0.20422796  0.70331434  0.44240256     0.30400
O805        O  0.21754248  0.71742256  0.45888635    -1.03000
O806        O  0.30009725  0.85734648  0.50935998    -0.80300
O807        O  0.31630904  0.65571363  0.49255415    -0.79800
O808        O  0.24547150  0.81561928  0.09243590    -0.78200
O809        O  0.24235967  0.82393400  0.40910006    -0.81600
O810        O  0.25353376  0.70930878  0.39151248    -0.79400
O811        O  0.25102996  0.69925920  0.10316166    -0.78100
O812        O  0.34890141  0.76186111  0.06431609    -0.79600
O813        O  0.34558583  0.76245984  0.43514094    -0.81500
O814        O  0.30314151  0.76038449  0.10339543    -0.78300
O815        O  0.30108877  0.76876828  0.39518471    -0.81000
O816        O  0.24237751  0.85457666  0.04616019    -0.76700
O817        O  0.25768842  0.65320875  0.06431619    -0.76700
O818        O  0.25916519  0.66165249  0.42845844    -0.76400
O819        O  0.24124221  0.86122446  0.45662346    -0.79900
O820        O  0.34591627  0.81923091  0.50155490    -0.79300
O821        O  0.35465953  0.70209022  0.49540948    -0.77600
Eu822      Eu  0.24492605  0.82348467  0.50818836     2.39800
Eu823      Eu  0.25641890  0.68110803  0.49126508     2.39600
Eu824      Eu  0.24837156  0.75453661  0.06990595     2.38400
Eu825      Eu  0.24848170  0.76178458  0.42862221     2.39900
Eu826      Eu  0.32134201  0.75844801  0.49701317     2.39800
O827        O  0.28763073  0.72393707  0.45861518    -0.92000
O828        O  0.28186098  0.79093268  0.03266561    -0.90900
C829        C  0.33302039  0.85061953  0.50592801     1.03100
C830        C  0.34761683  0.66863755  0.49451306     1.01900
C831        C  0.24355974  0.84714420  0.07933805     1.01200
C832        C  0.24056428  0.85503471  0.42328791     1.03300
C833        C  0.25720852  0.67604100  0.39732029     1.02200
C834        C  0.25431034  0.66620357  0.09587162     1.01000
C835        C  0.33605082  0.76224282  0.09618023     1.01100
C836        C  0.33342696  0.76635954  0.40318297     1.03700
H837        H  0.30390937  0.70757826  0.05453814     0.31100
O838        O  0.28901041  0.71988102  0.03798856    -1.04200
H839        H  0.29547508  0.81338119  0.45363410     0.33100
O840        O  0.28257081  0.79601984  0.46707347    -1.06800
C841        C  0.25090586  0.60700365  0.12343172    -0.15600
C842        C  0.25399692  0.64212472  0.12663037    -0.30800
H843        H  0.24898861  0.59529275  0.09725541     0.13400
H844        H  0.25530930  0.65390348  0.15281313     0.14000
C845        C  0.24648657  0.87356016  0.13867484    -0.15600
C846        C  0.24309573  0.87747458  0.10363316    -0.30800
H847        H  0.24892481  0.84728170  0.15000975     0.13400
H848        H  0.24064939  0.90373548  0.09226145     0.14000
C849        C  0.23678358  0.88260547  0.36509430    -0.15600
C850        C  0.23853158  0.88625025  0.40009986    -0.30800
H851        H  0.23530542  0.85623941  0.35376843     0.13400
H852        H  0.24009963  0.91239962  0.41182818     0.14000
C853        C  0.26010704  0.61803774  0.36842275    -0.15600
C854        C  0.25823884  0.65315851  0.36554086    -0.30800
H855        H  0.26225628  0.60637991  0.39464031     0.13400
H856        H  0.25574861  0.66525718  0.33958798     0.14000
C857        C  0.37274251  0.64647976  0.24493322    -0.15600
C858        C  0.37489741  0.61101788  0.24544415    -0.30800
H859        H  0.34704221  0.65867648  0.24496267     0.13400
H860        H  0.40066788  0.59895501  0.24573171     0.14000
C861        C  0.39562573  0.88067100  0.25851480    -0.15600
C862        C  0.36081835  0.87645260  0.25878889    -0.30800
H863        H  0.40675412  0.90707594  0.25816256     0.13400
H864        H  0.34982034  0.84998322  0.25948884     0.14000
C865        C  0.12906590  0.64912637  0.24792662    -0.15600
C866        C  0.12800812  0.61427553  0.24286760    -0.30800
H867        H  0.15424766  0.66142714  0.25299392     0.13400
H868        H  0.10266086  0.60203990  0.23855569     0.14000
C869        C  0.10564785  0.88120196  0.26804070    -0.15600
C870        C  0.13803594  0.87836091  0.25579974    -0.30800
H871        H  0.09562490  0.90675427  0.27635772     0.13400
H872        H  0.14775766  0.85271070  0.24736017     0.14000
C873        C  0.39494119  0.76487891  0.12540302    -0.15600
C874        C  0.35981568  0.76431236  0.12755696    -0.30800
H875        H  0.40700712  0.76468403  0.09937148     0.13400
H876        H  0.34771789  0.76440525  0.15357378     0.14000
C877        C  0.13026714  0.75722317  0.14468896    -0.15600
C878        C  0.12733778  0.75116564  0.10964667    -0.30800
H879        H  0.15607605  0.75997047  0.15632655     0.13400
H880        H  0.10146051  0.74786652  0.09827951     0.14000
C881        C  0.10201810  0.74711186  0.38058134    -0.15600
C882        C  0.13589433  0.75553877  0.37749461    -0.30800
H883        H  0.09136723  0.73982876  0.40622135     0.13400
H884        H  0.14622080  0.76292371  0.35172318     0.14000
C885        C  0.38822674  0.75187612  0.37317151    -0.15600
C886        C  0.35715323  0.76748733  0.37246630    -0.30800
H887        H  0.39715535  0.73997332  0.39776622     0.13400
H888        H  0.34780143  0.77918801  0.34796111     0.14000
C889        C  0.38468974  0.88199190  0.01275199    -0.15600
C890        C  0.35216491  0.88314580  0.99999332    -0.30800
H891        H  0.39507556  0.85694151  0.02209859     0.13400
H892        H  0.34531843  0.90773062  0.50976117     0.14000
C893        C  0.37985409  0.61008535  0.00505253    -0.15600
C894        C  0.38285003  0.64540330  0.00620426    -0.30800
H895        H  0.34888360  0.59707185  0.50091136     0.13400
H896        H  0.40866635  0.65732688  0.00707400     0.14000
C897        C  0.12781270  0.88817611  0.99141902    -0.15600
C898        C  0.12364811  0.85307217  0.99151387    -0.30800
H899        H  0.15388685  0.89944003  0.98963382     0.13400
H900        H  0.09824447  0.84847423  0.50277151     0.14000
C901        C  0.14470165  0.62223867  0.99865663    -0.15600
C902        C  0.10978993  0.62808922  0.99744179    -0.30800
H903        H  0.15473299  0.59540815  0.99953262     0.13400
H904        H  0.09815719  0.65490842  0.49810139     0.14000
C905        C  0.39356406  0.50107448  0.37363061    -0.15600
C906        C  0.35905405  0.49918454  0.37557902    -0.30800
H907        H  0.40026495  0.00487806  0.35010917     0.13400
H908        H  0.34689261  0.49781235  0.40155639     0.14000
C909        C  0.13805545  0.51044256  0.37366854    -0.15600
C910        C  0.10344913  0.50914971  0.36903020    -0.30800
H911        H  0.14889754  0.51208074  0.40019658     0.13400
H912        H  0.15263285  0.02010545  0.40450965     0.14000
C913        C  0.12591567  0.49993971  0.14085152    -0.15600
C914        C  0.12917315  0.50489140  0.10593984    -0.30800
H915        H  0.09996084  0.49762206  0.15233931     0.13400
H916        H  0.15595723  0.01791494  0.09237586     0.14000
C917        C  0.39487153  0.49228194  0.12786594    -0.15600
C918        C  0.35975746  0.49172481  0.12551820    -0.30800
H919        H  0.40668419  0.49264885  0.15400644     0.13400
H920        H  0.35242990  0.98694306  0.10281943     0.14000
C921        C  0.98898669  0.62729385  0.38786512    -0.15600
C922        C  0.99178963  0.62325575  0.35268679    -0.30800
H923        H  0.48987161  0.65546412  0.40528820     0.13400
H924        H  0.99395590  0.59696060  0.34139097     0.14000
C925        C  0.99591779  0.85901278  0.37934258    -0.15600
C926        C  0.00245938  0.89377034  0.37466209    -0.30800
H927        H  0.50405683  0.84747506  0.40832871     0.13400
H928        H  0.00506020  0.90454958  0.34814424     0.14000
C929        C  0.01845275  0.88538880  0.11761201    -0.15600
C930        C  0.01025251  0.88869500  0.15161169    -0.30800
H931        H  0.02486044  0.85941638  0.10714163     0.13400
H932        H  0.51400277  0.91084481  0.16153128     0.14000
C933        C  0.00623989  0.61765438  0.12248434    -0.15600
C934        C  0.00705176  0.65271277  0.11801898    -0.30800
H935        H  0.00739433  0.60657580  0.14900589     0.13400
H936        H  0.50281110  0.66052366  0.09614291     0.14000
O937        O  0.00810520  0.55990941  0.60056301    -0.79300
O938        O  0.98752657  0.55858650  0.90247546    -0.80900
O939        O  0.05141821  0.60610530  0.49816798    -0.77900
O940        O  0.43666492  0.59607214  0.50436724    -0.76300
O941        O  0.39758514  0.55033350  0.50074813    -0.78100
O942        O  0.09652784  0.56695986  0.49174177    -0.79000
O943        O  0.98991947  0.60297675  0.94354523    -0.80300
O944        O  0.99956255  0.60206428  0.55790594    -0.80600
Eu945      Eu  0.99579387  0.57305344  0.50113719     2.39200
O946        O  0.46639995  0.53712810  0.97043193    -0.88100
O947        O  0.03670337  0.53901833  0.53266349    -0.91700
C948        C  0.00464089  0.59252983  0.59008413     1.03000
C949        C  0.98793556  0.59119506  0.91144005     1.02800
C950        C  0.08416007  0.59856382  0.49457705     1.02700
C951        C  0.40516066  0.58360311  0.50197412     1.00600
H952        H  0.04174534  0.55791016  0.94731791     0.30300
O953        O  0.02934296  0.54258810  0.96344417    -1.00500
H954        H  0.45072965  0.54086325  0.55446226     0.30400
O955        O  0.46571940  0.52840534  0.53816454    -1.03000
O956        O  0.00518912  0.93330108  0.90441228    -0.80300
O957        O  0.00469262  0.92738354  0.59373470    -0.79800
O958        O  0.09252254  0.50729074  0.93383208    -0.78200
O959        O  0.40563849  0.49569851  0.94029482    -0.81600
O960        O  0.40549374  0.49074041  0.56194091    -0.79400
O961        O  0.10583489  0.50705475  0.54654701    -0.78100
O962        O  0.06821899  0.90634224  0.49433171    -0.79600
O963        O  0.44892781  0.90205597  0.49911214    -0.81500
O964        O  0.10686471  0.95212266  0.49999769    -0.78300
O965        O  0.40380002  0.94189717  0.50198408    -0.81000
O966        O  0.04631483  0.50557916  0.89571992    -0.76700
O967        O  0.06813553  0.50185850  0.59337364    -0.76700
O968        O  0.45040156  0.48765030  0.60211703    -0.76400
O969        O  0.44923222  0.50525252  0.89999712    -0.79900
O970        O  0.01047925  0.89363193  0.94958785    -0.79300
O971        O  0.00969187  0.89092416  0.54570601    -0.77600
Eu972      Eu  0.99380699  0.50277938  0.93237447     2.39800
Eu973      Eu  0.00741563  0.49993889  0.57099234     2.39600
Eu974      Eu  0.07115607  0.50731097  0.49205853     2.38400
Eu975      Eu  0.43041571  0.49416487  0.49957495     2.39900
Eu976      Eu  0.00828747  0.92964025  0.49532303     2.39800
O977        O  0.47002764  0.96844677  0.53397224    -0.92000
O978        O  0.04128752  0.96051438  0.96173860    -0.90900
C979        C  0.00821568  0.90187508  0.91689043     1.03100
C980        C  0.00703614  0.89641779  0.57899313     1.01900
C981        C  0.07925805  0.50602477  0.90238981     1.01200
C982        C  0.41719550  0.50006066  0.90792711     1.02500
C983        C  0.41765645  0.48867265  0.59418538     1.02200
C984        C  0.09915025  0.50453405  0.57987350     1.01000
C985        C  0.09942478  0.91909556  0.49687953     1.01100
C986        C  0.41613425  0.90993058  0.50107724     1.03700
H987        H  0.05692567  0.94784612  0.54929183     0.31100
O988        O  0.04126090  0.96293327  0.53614263    -1.04200
H989        H  0.44271285  0.95019843  0.95530957     0.33100
O990        O  0.45839302  0.96520937  0.96848251    -1.06800
O991        O  0.00607897  0.68302805  0.66016742    -0.79300
O992        O  0.00189909  0.70550293  0.86137497    -0.80900
O993        O  0.06956615  0.65730552  0.76196277    -0.77900
O994        O  0.43184580  0.65520050  0.74845514    -0.76300
O995        O  0.39507049  0.70175936  0.75864157    -0.78100
O996        O  0.10808802  0.70351123  0.75849978    -0.79000
O997        O  0.00377854  0.65886551  0.82298297    -0.80300
O998        O  0.01015421  0.64517024  0.70737072    -0.80600
Eu999      Eu  0.00838245  0.68075752  0.76128541     2.39200
O1000       O  0.46613569  0.71298083  0.78688834    -0.88100
O1001       O  0.04032959  0.71742636  0.72297501    -0.91700
C1002       C  0.00852210  0.65160482  0.67395490     1.03000
C1003       C  0.00151522  0.67246999  0.85436197     1.02800
C1004       C  0.10097117  0.67031653  0.76031540     1.02700
C1005       C  0.40112700  0.66869020  0.75402088     1.00600
H1006       H  0.05608465  0.70810745  0.81031635     0.30300
O1007       O  0.04123053  0.72111410  0.79427566    -1.00500
H1008       H  0.44139608  0.70711928  0.70137908     0.30400
O1009       O  0.45849529  0.71971278  0.71529010    -1.03000
O1010       O  0.00120222  0.81758796  0.84722758    -0.80300
O1011       O  0.00035621  0.80350403  0.64942389    -0.79800
O1012       O  0.10052778  0.75839461  0.81610321    -0.78200
O1013       O  0.41180817  0.75343772  0.82145626    -0.81600
O1014       O  0.39448645  0.75767921  0.70455093    -0.79400
O1015       O  0.10489152  0.75358713  0.70088225    -0.78100
O1016       O  0.04947306  0.85777293  0.74903738    -0.79600
O1017       O  0.45349412  0.85420936  0.75831709    -0.81500
O1018       O  0.09576714  0.82029457  0.75564051    -0.78300
O1019       O  0.40735541  0.81582453  0.75818831    -0.81000
O1020       O  0.05699522  0.76090729  0.85748738    -0.76700
O1021       O  0.06495498  0.74400810  0.65652611    -0.76700
O1022       O  0.43130016  0.75811991  0.65669442    -0.76400
O1023       O  0.45847388  0.74314004  0.85796540    -0.79900
O1024       O  0.99638573  0.85649367  0.80138552    -0.79300
O1025       O  0.99481430  0.84653231  0.69156485    -0.77600
Eu1026     Eu  0.00264582  0.75771996  0.82542058     2.39800
Eu1027     Eu  0.00320145  0.74559901  0.68175638     2.39600
Eu1028     Eu  0.07384025  0.75796677  0.75646172     2.38400
Eu1029     Eu  0.43064457  0.75508716  0.75839195     2.39900
Eu1030     Eu  0.99794547  0.82079773  0.74908058     2.39800
O1031       O  0.46558043  0.79031450  0.72140668    -0.92000
O1032       O  0.03636372  0.79390415  0.78888376    -0.90900
C1033       C  0.99892954  0.84886469  0.83421367     1.03100
C1034       C  0.99675334  0.83614337  0.65950341     1.01900
C1035       C  0.08921017  0.75932677  0.84836423     1.01200
C1036       C  0.42581092  0.74857913  0.85237989     1.03300
C1037       C  0.40040017  0.75798415  0.67092168     1.02200
C1038       C  0.09685151  0.74766751  0.66843309     1.01000
C1039       C  0.08219516  0.85164551  0.75272317     1.01100
C1040       C  0.42056739  0.84726262  0.75755349     1.03700
H1041       H  0.05026388  0.80125793  0.70012958     0.31100
O1042       O  0.03656548  0.78632990  0.71551962    -1.04200
H1043       H  0.46079131  0.79826003  0.81028560     0.33100
O1044       O  0.47272451  0.78381906  0.79307578    -1.06800
O1045       O  0.34562061  0.99693503  0.68305056    -0.79300
O1046       O  0.14637366  0.00654896  0.70851852    -0.80900
O1047       O  0.24492745  0.95113076  0.64993991    -0.77900
O1048       O  0.24732008  0.56162748  0.65274288    -0.76300
O1049       O  0.24855925  0.60131844  0.69858888    -0.78100
O1050       O  0.24746520  0.90521902  0.68949562    -0.79000
O1051       O  0.18391079  0.00797055  0.66130983    -0.80300
O1052       O  0.29937986  0.00543121  0.64543774    -0.80600
Eu1053     Eu  0.24621238  0.00812118  0.68196838     2.39200
O1054       O  0.21385892  0.53416808  0.71960885    -0.88100
O1055       O  0.28327397  0.96739069  0.71148219    -0.91700
C1056       C  0.33218914  0.00057355  0.65176159     1.03000
C1057       C  0.15280730  0.00698639  0.67524311     1.02800
C1058       C  0.24570202  0.91784829  0.65772180     1.02700
C1059       C  0.24799036  0.59351803  0.66523311     1.00600
H1060       H  0.19817037  0.95623502  0.70505895     0.30300
O1061       O  0.21428890  0.96987317  0.71917875    -1.00500
H1062       H  0.29820739  0.54948992  0.70242296     0.30400
O1063       O  0.28388779  0.53415970  0.71690580    -1.03000
O1064       O  0.16076585  0.99897612  0.81993346    -0.80300
O1065       O  0.35883296  0.99567197  0.80048458    -0.79800
O1066       O  0.19601682  0.90140142  0.75280733    -0.78200
O1067       O  0.19054136  0.59722446  0.75877272    -0.81600
O1068       O  0.31043342  0.59695798  0.75496701    -0.79400
O1069       O  0.30559950  0.89667030  0.74649012    -0.78100
O1070       O  0.26006245  0.94189910  0.85202996    -0.79600
O1071       O  0.25149166  0.54399015  0.85722721    -0.81500
O1072       O  0.25177024  0.90038388  0.80892471    -0.78300
O1073       O  0.25439507  0.59095357  0.81905464    -0.81000
O1074       O  0.15376415  0.94386415  0.75861871    -0.76700
O1075       O  0.35045300  0.93658934  0.74536993    -0.76700
O1076       O  0.35143943  0.55286915  0.75128742    -0.76400
O1077       O  0.14933376  0.55316092  0.75638233    -0.79900
O1078       O  0.20665944  0.99508000  0.85840777    -0.79300
O1079       O  0.31959250  0.99610989  0.84618679    -0.77600
Eu1080     Eu  0.18298627  0.00405275  0.76027963     2.39800
Eu1081     Eu  0.32501952  0.99710964  0.74539295     2.39600
Eu1082     Eu  0.25153283  0.93033198  0.74971153     2.38400
Eu1083     Eu  0.25032528  0.56952771  0.75600440     2.39900
Eu1084     Eu  0.26035282  0.99776076  0.82349089     2.39800
O1085       O  0.28576403  0.52996230  0.78786557    -0.92000
O1086       O  0.22024217  0.96491429  0.79022812    -0.90900
C1087       C  0.17383815  0.99587993  0.85112602     1.03100
C1088       C  0.35083373  0.99585333  0.83362620     1.01900
C1089       C  0.16416844  0.91116213  0.75593496     1.01200
C1090       C  0.15840634  0.58585263  0.75832100     1.03300
C1091       C  0.34249285  0.58549995  0.75310979     1.02200
C1092       C  0.33824774  0.90466496  0.74625541     1.01000
C1093       C  0.25541857  0.91021128  0.84163355     1.01100
C1094       C  0.25384200  0.57703601  0.85061312     1.03700
H1095       H  0.30640575  0.94588022  0.79713584     0.31100
O1096       O  0.29164786  0.96181002  0.78387032    -1.04200
H1097       H  0.20089506  0.54463049  0.80543783     0.33100
O1098       O  0.21481514  0.53081116  0.78927251    -1.06800
O1099       O  0.20327219  0.64369480  0.00151426    -0.79300
O1100       O  0.18484265  0.84246950  0.98974804    -0.80900
O1101       O  0.14864111  0.73911414  0.55305060    -0.77900
O1102       O  0.15848723  0.74329649  0.93503167    -0.76300
O1103       O  0.20343553  0.74050067  0.89532158    -0.78100
O1104       O  0.18900117  0.74013597  0.59784683    -0.79000
O1105       O  0.14692418  0.79580994  0.99267263    -0.80300
O1106       O  0.15800992  0.68306623  0.99688701    -0.80600
Eu1107     Eu  0.18223784  0.74232817  0.99556716     2.39200
O1108       O  0.21508728  0.77885917  0.95820256    -0.88100
O1109       O  0.21823985  0.71051767  0.53042344    -0.91700
C1110       C  0.17033970  0.65151412  0.99912108     1.03000
C1111       C  0.15380705  0.82901881  0.99096848     1.02800
C1112       C  0.15701308  0.73849557  0.58591830     1.02700
C1113       C  0.17092193  0.74259856  0.90323556     1.00600
H1114       H  0.19570014  0.79320731  0.55432849     0.30300
O1115       O  0.21158426  0.78106345  0.53867012    -1.00500
H1116       H  0.20976516  0.69054185  0.94868963     0.30400
O1117       O  0.22211109  0.70689978  0.96381041    -1.03000
O1118       O  0.29716562  0.85702411  0.99299068    -0.80300
O1119       O  0.32091068  0.65545890  0.00540534    -0.79800
O1120       O  0.24571824  0.79963141  0.60707077    -0.78200
O1121       O  0.25112146  0.79460661  0.89137228    -0.81600
O1122       O  0.26655735  0.68857932  0.90167491    -0.79400
O1123       O  0.25209064  0.68374555  0.59440734    -0.78100
O1124       O  0.35051422  0.75709788  0.55437811    -0.79600
O1125       O  0.35487886  0.75716732  0.94409050    -0.81500
O1126       O  0.31001011  0.74895294  0.59856076    -0.78300
O1127       O  0.31284963  0.75150220  0.90141035    -0.81000
O1128       O  0.24297844  0.84651007  0.56896568    -0.76700
O1129       O  0.25579980  0.64617353  0.54703431    -0.76700
O1130       O  0.26445166  0.64591744  0.94443447    -0.76400
O1131       O  0.24466694  0.84089142  0.92947541    -0.79900
O1132       O  0.34385869  0.82033996  0.00278685    -0.79300
O1133       O  0.35863570  0.70264215  0.00530755    -0.77600
Eu1134     Eu  0.24514117  0.82021766  0.99190237     2.39800
Eu1135     Eu  0.25953731  0.67696785  0.00312305     2.39600
Eu1136     Eu  0.24991508  0.74493995  0.57150221     2.38400
Eu1137     Eu  0.25685292  0.74441527  0.92938363     2.39900
Eu1138     Eu  0.32434718  0.75749055  0.00283868     2.39800
O1139       O  0.29422204  0.71501357  0.96846453    -0.92000
O1140       O  0.28332565  0.78592518  0.53837178    -0.90900
C1141       C  0.32981311  0.85130495  0.99855545     1.03100
C1142       C  0.35199798  0.66920842  0.00568027     1.01900
C1143       C  0.24374940  0.83306259  0.60036512     1.01200
C1144       C  0.24723137  0.82741245  0.89803623     1.03300
C1145       C  0.26711951  0.65641639  0.91175344     1.02200
C1146       C  0.25381515  0.65247595  0.58066654     1.01000
C1147       C  0.34181821  0.75348742  0.58712157     1.01100
C1148       C  0.34458565  0.75521610  0.91139663     1.03700
H1149       H  0.30392357  0.70239638  0.54396194     0.31100
O1150       O  0.28819977  0.71718322  0.53054059    -1.04200
H1151       H  0.30086162  0.80202425  0.94694454     0.33100
O1152       O  0.28745261  0.78674667  0.96227148    -1.06800
C1153       C  0.24836914  0.62406075  0.64021383    -0.15600
C1154       C  0.25319940  0.62122853  0.60488112    -0.30800
H1155       H  0.24530844  0.65016853  0.65172162     0.13400
H1156       H  0.25650899  0.59522069  0.59322916     0.14000
C1157       C  0.24487482  0.89289419  0.62744118    -0.15600
C1158       C  0.24277305  0.85749371  0.63112261    -0.30800
H1159       H  0.24643175  0.90424945  0.60107532     0.13400
H1160       H  0.24130286  0.84600548  0.65742911     0.14000
C1161       C  0.25416484  0.88484642  0.87076958    -0.15600
C1162       C  0.24671079  0.85079557  0.86706932    -0.30800
H1163       H  0.25951007  0.89520903  0.89706994     0.13400
H1164       H  0.24225332  0.83965259  0.84096256     0.14000
C1165       C  0.25534600  0.59954387  0.88245537    -0.15600
C1166       C  0.27007317  0.63134669  0.88213248    -0.30800
H1167       H  0.24422099  0.58942575  0.90692215     0.13400
H1168       H  0.28097786  0.64123038  0.85745513     0.14000
C1169       C  0.36996046  0.64533800  0.75505697    -0.15600
C1170       C  0.37251021  0.61020009  0.75256546    -0.30800
H1171       H  0.34437240  0.65741107  0.75803847     0.13400
H1172       H  0.39831289  0.59845121  0.74994341     0.14000
C1173       C  0.39679885  0.87797596  0.75507719    -0.15600
C1174       C  0.36258923  0.87442968  0.74811519    -0.30800
H1175       H  0.40793125  0.90419312  0.75819221     0.13400
H1176       H  0.35153949  0.84815037  0.74505295     0.14000
C1177       C  0.13170378  0.64619527  0.76013174    -0.15600
C1178       C  0.12856999  0.61091926  0.76014730    -0.30800
H1179       H  0.15761152  0.65790948  0.75910506     0.13400
H1180       H  0.10252701  0.59945625  0.76081016     0.14000
C1181       C  0.10486588  0.88347958  0.75376060    -0.15600
C1182       C  0.13953625  0.88102710  0.75634306    -0.30800
H1183       H  0.09275911  0.90937461  0.75188123     0.13400
H1184       H  0.15119008  0.85485060  0.75752705     0.14000
C1185       C  0.36908057  0.75724220  0.64747527    -0.15600
C1186       C  0.37176835  0.75450134  0.61213133    -0.30800
H1187       H  0.34335830  0.75833999  0.65960232     0.13400
H1188       H  0.39768444  0.75376162  0.60035582     0.14000
C1189       C  0.12781655  0.74562445  0.64450406    -0.15600
C1190       C  0.12640662  0.73671656  0.61030881    -0.30800
H1191       H  0.15309694  0.75235480  0.65576257     0.13400
H1192       H  0.10110630  0.73051025  0.59882571     0.14000
C1193       C  0.11412276  0.75723353  0.87766121    -0.15600
C1194       C  0.14672003  0.74537749  0.87330519    -0.30800
H1195       H  0.10466086  0.76377166  0.90398858     0.13400
H1196       H  0.15629823  0.73884470  0.84703078     0.14000
C1197       C  0.40327948  0.74928675  0.88415894    -0.15600
C1198       C  0.36947073  0.75758073  0.88184401    -0.30800
H1199       H  0.41446455  0.74222327  0.90962280     0.13400
H1200       H  0.35846863  0.76387310  0.85607262     0.14000
C1201       C  0.39179567  0.87916726  0.50201604    -0.15600
C1202       C  0.35695150  0.88177113  0.50640008    -0.30800
H1203       H  0.40331925  0.85312275  0.49889713     0.13400
H1204       H  0.34174077  0.90794124  0.99004270     0.14000
C1205       C  0.37490014  0.60855083  0.50007385    -0.15600
C1206       C  0.37810247  0.64393289  0.49646320    -0.30800
H1207       H  0.35394071  0.59836391  0.00398830     0.13400
H1208       H  0.40408907  0.65545570  0.49559428     0.14000
C1209       C  0.12905459  0.89433411  0.49726597    -0.15600
C1210       C  0.12447303  0.85938313  0.50117500    -0.30800
H1211       H  0.15527372  0.90526914  0.49567490     0.13400
H1212       H  0.09762842  0.84168105  0.99326214     0.14000
C1213       C  0.14355503  0.62469963  0.48882408    -0.15600
C1214       C  0.10888555  0.62867526  0.49387288    -0.30800
H1215       H  0.15433124  0.59847203  0.48471654     0.13400
H1216       H  0.09978542  0.65493513  0.99714206     0.14000
C1217       C  0.39400656  0.49949769  0.87602630    -0.15600
C1218       C  0.36030836  0.49049603  0.87618395    -0.30800
H1219       H  0.34712270  0.00219644  0.90419218     0.13400
H1220       H  0.34848773  0.48354848  0.90140627     0.14000
C1221       C  0.13734368  0.49803666  0.87496592    -0.15600
C1222       C  0.10300742  0.50440494  0.87146130    -0.30800
H1223       H  0.14829264  0.49478705  0.90129873     0.13400
H1224       H  0.10447335  0.99346700  0.84820510     0.14000
C1225       C  0.12616154  0.50169031  0.63910738    -0.15600
C1226       C  0.12969717  0.50443851  0.60389470    -0.30800
H1227       H  0.10014501  0.49974804  0.65049643     0.13400
H1228       H  0.15007107  0.99800335  0.60569001     0.14000
C1229       C  0.39351477  0.48809443  0.62547024    -0.15600
C1230       C  0.35952048  0.49695789  0.62408181    -0.30800
H1231       H  0.40480618  0.48174968  0.65107679     0.13400
H1232       H  0.34415728  0.00071794  0.59433482     0.14000
C1233       C  0.98768775  0.61588238  0.88172320    -0.15600
C1234       C  0.99813815  0.64922750  0.88510734    -0.30800
H1235       H  0.49947944  0.65323564  0.90235327     0.13400
H1236       H  0.00413281  0.65992510  0.91109675     0.14000
C1237       C  0.99971181  0.87816384  0.85848901    -0.15600
C1238       C  0.00838248  0.87296332  0.89221064    -0.30800
H1239       H  0.51748198  0.84108922  0.90733636     0.13400
H1240       H  0.01462973  0.84678682  0.90224592     0.14000
C1241       C  0.00667330  0.86435304  0.60119607    -0.15600
C1242       C  0.99481567  0.86552282  0.63423162    -0.30800
H1243       H  0.01596037  0.83956366  0.59017010     0.13400
H1244       H  0.49814307  0.90712003  0.65905730     0.14000
C1245       C  0.00632580  0.62264814  0.61521938    -0.15600
C1246       C  0.00898429  0.61998372  0.65045621    -0.30800
H1247       H  0.00442595  0.64887419  0.60363345     0.13400
H1248       H  0.48754570  0.65166576  0.59624530     0.14000
O1249       O  0.51057755  0.06348041  0.09579703    -0.79300
O1250       O  0.49547990  0.06894094  0.40564764    -0.80900
O1251       O  0.55774773  0.10035822  0.99196517    -0.77900
O1252       O  0.94144890  0.09624001  0.99435473    -0.76300
O1253       O  0.90175904  0.05094765  0.99916169    -0.78100
O1254       O  0.60070547  0.05831075  0.99180880    -0.79000
O1255       O  0.49739615  0.10848963  0.45111584    -0.80300
O1256       O  0.50808759  0.10372368  0.05050825    -0.80600
Eu1257     Eu  0.50097481  0.07135877  0.99643186     2.39200
O1258       O  0.96536471  0.03544503  0.47061218    -0.88100
O1259       O  0.53907009  0.03682337  0.03105986    -0.91700
C1260       C  0.51046036  0.09539599  0.08323005     1.03000
C1261       C  0.49536390  0.10070085  0.41841667     1.02800
C1262       C  0.59001409  0.09081221  0.99136625     1.02700
C1263       C  0.90987450  0.08400264  0.99751041     1.00600
H1264       H  0.55002856  0.05894459  0.44833258     0.30300
O1265       O  0.53680243  0.04274753  0.46288497    -1.00500
H1266       H  0.95491880  0.04893426  0.04515762     0.30400
O1267       O  0.96947933  0.03396847  0.03065587    -1.03000
O1268       O  0.50608905  0.45508408  0.39098771    -0.80300
O1269       O  0.51020979  0.44539117  0.10253644    -0.79800
O1270       O  0.59690467  0.00842863  0.43445561    -0.78200
O1271       O  0.90736730  0.99751798  0.43821862    -0.81600
O1272       O  0.90743760  0.99461502  0.06203308    -0.79400
O1273       O  0.60601012  0.99915913  0.04747576    -0.78100
O1274       O  0.56614257  0.39993020  0.99409095    -0.79600
O1275       O  0.95142537  0.39617018  0.00614301    -0.81500
O1276       O  0.60599402  0.44496614  0.99442203    -0.78300
O1277       O  0.90601801  0.43556591  0.00901845    -0.81000
O1278       O  0.55217599  0.01223669  0.39445844    -0.76700
O1279       O  0.56812303  0.00157831  0.09434921    -0.76700
O1280       O  0.95237106  0.00155978  0.10168222    -0.76400
O1281       O  0.95212356  0.00703448  0.39882788    -0.79900
O1282       O  0.50914285  0.40762079  0.42822863    -0.79300
O1283       O  0.51033153  0.40141554  0.06085940    -0.77600
Eu1284     Eu  0.49959209  0.00773058  0.42876749     2.39800
Eu1285     Eu  0.50726930  0.00249306  0.07174036     2.39600
Eu1286     Eu  0.57099287  0.99969708  0.99336864     2.38400
Eu1287     Eu  0.93252928  0.99409854  0.99993168     2.39900
Eu1288     Eu  0.50789937  0.42785681  0.99931342     2.39800
O1289       O  0.97165202  0.46361305  0.04057799    -0.92000
O1290       O  0.54076366  0.46991304  0.45823666    -0.90900
C1291       C  0.50827127  0.42173621  0.39701426     1.03100
C1292       C  0.51089026  0.41298926  0.09338097     1.01900
C1293       C  0.58462123  0.01107225  0.40259485     1.01200
C1294       C  0.91977142  0.00240321  0.40622085     1.02500
C1295       C  0.91964755  0.99764032  0.09413005     1.02200
C1296       C  0.59923797  0.00022688  0.08084125     1.01000
C1297       C  0.59776089  0.41201445  0.99292246     1.01100
C1298       C  0.91853824  0.40386331  0.00791613     1.03700
H1299       H  0.55818401  0.44983058  0.04917569     0.31100
O1300       O  0.54258775  0.46425963  0.03523994    -1.04200
H1301       H  0.95029442  0.44970569  0.44932596     0.33100
O1302       O  0.96486853  0.46480271  0.46367544    -1.06800
O1303       O  0.50633373  0.18428063  0.15323769    -0.79300
O1304       O  0.49439792  0.18828653  0.34647471    -0.80900
O1305       O  0.55081693  0.14518568  0.25030622    -0.77900
O1306       O  0.93239935  0.15336560  0.24800343    -0.76300
O1307       O  0.89441162  0.19956711  0.24157642    -0.78100
O1308       O  0.59691134  0.18378525  0.25255256    -0.79000
O1309       O  0.48922250  0.14646287  0.30326358    -0.80300
O1310       O  0.49568930  0.14442413  0.19724665    -0.80600
Eu1311     Eu  0.49499137  0.17829796  0.25009139     2.39200
O1312       O  0.95635108  0.21386391  0.28260794    -0.88100
O1313       O  0.53721374  0.20886113  0.21713314    -0.91700
C1314       C  0.50169434  0.15250004  0.16507654     1.03000
C1315       C  0.49056100  0.15605152  0.33546852     1.02800
C1316       C  0.58383670  0.15247758  0.25103516     1.02700
C1317       C  0.90147467  0.16648822  0.24449453     1.00600
H1318       H  0.54677868  0.19322288  0.30257084     0.30300
O1319       O  0.53424913  0.20917490  0.28715810    -1.00500
H1320       H  0.94898050  0.19937167  0.19520064     0.30400
O1321       O  0.96347853  0.21300447  0.21105305    -1.03000
O1322       O  0.50611402  0.30556167  0.34837732    -0.80300
O1323       O  0.51020981  0.29798197  0.14468964    -0.79800
O1324       O  0.59927546  0.24191304  0.31505800    -0.78200
O1325       O  0.89358209  0.25293741  0.29705921    -0.81600
O1326       O  0.90539251  0.25595338  0.18371707    -0.79400
O1327       O  0.60579928  0.24138445  0.19758956    -0.78100
O1328       O  0.56773368  0.34541066  0.25141698    -0.79600
O1329       O  0.95065769  0.35268824  0.24510197    -0.81500
O1330       O  0.60639067  0.29933738  0.25542283    -0.78300
O1331       O  0.90508216  0.31356873  0.24263204    -0.81000
O1332       O  0.55412130  0.24515501  0.35445903    -0.76700
O1333       O  0.56607206  0.24255253  0.15230845    -0.76700
O1334       O  0.95091898  0.24960246  0.14497465    -0.76400
O1335       O  0.93160557  0.24922108  0.34351649    -0.79900
O1336       O  0.50895782  0.34942145  0.30660280    -0.79300
O1337       O  0.51123594  0.34369743  0.18444175    -0.77600
Eu1338     Eu  0.50070094  0.24835502  0.31986540     2.39800
Eu1339     Eu  0.50641629  0.24483691  0.17845287     2.39600
Eu1340     Eu  0.57373788  0.24347165  0.25391257     2.38400
Eu1341     Eu  0.92915475  0.25346248  0.24340241     2.39900
Eu1342     Eu  0.50812947  0.32081111  0.24708741     2.39800
O1343       O  0.97123528  0.28458214  0.21061590    -0.92000
O1344       O  0.53892899  0.28273349  0.28573091    -0.90900
C1345       C  0.50833365  0.33813888  0.33904483     1.03100
C1346       C  0.51140269  0.33079232  0.15244443     1.01900
C1347       C  0.58679541  0.24305179  0.34701877     1.01200
C1348       C  0.90060075  0.25114391  0.33029326     1.03300
C1349       C  0.91814022  0.25377427  0.15226897     1.02200
C1350       C  0.59773459  0.24167438  0.16443655     1.01000
C1351       C  0.59892769  0.33256576  0.25440107     1.01100
C1352       C  0.91774946  0.34516449  0.24351927     1.03700
H1353       H  0.55862635  0.29350936  0.20032758     0.31100
O1354       O  0.54241922  0.28036595  0.21480635    -1.04200
H1355       H  0.94959984  0.30212119  0.29615043     0.33100
O1356       O  0.96408291  0.28625057  0.28253942    -1.06800
O1357       O  0.84668486  0.48970291  0.18556157    -0.79300
O1358       O  0.64670785  0.50595588  0.20387441    -0.80900
O1359       O  0.74116855  0.43516473  0.15379594    -0.77900
O1360       O  0.75109556  0.05056234  0.14549039    -0.76300
O1361       O  0.75605935  0.09597764  0.18509535    -0.78100
O1362       O  0.74129796  0.39507157  0.19917004    -0.79000
O1363       O  0.68500157  0.49908157  0.15782625    -0.80300
O1364       O  0.80131414  0.49115203  0.14617612    -0.80600
Eu1365     Eu  0.74592286  0.49525448  0.17968458     2.39200
O1366       O  0.71594299  0.03692664  0.21388238    -0.88100
O1367       O  0.78134396  0.45837352  0.21439733    -0.91700
C1368       C  0.83419439  0.48983851  0.15392780     1.03000
C1369       C  0.65388522  0.50287637  0.17080806     1.02800
C1370       C  0.74024517  0.40320991  0.16606401     1.02700
C1371       C  0.75405976  0.08342643  0.15332144     1.00600
H1372       H  0.69386351  0.45087847  0.20768366     0.30300
O1373       O  0.71067194  0.46491814  0.22049074    -1.00500
H1374       H  0.80246691  0.04318304  0.19584723     0.30400
O1375       O  0.78749037  0.03026316  0.21181917    -1.03000
O1376       O  0.65963076  0.50996275  0.31840048    -0.80300
O1377       O  0.85600020  0.49312756  0.29993232    -0.79800
O1378       O  0.68638577  0.40362622  0.25896908    -0.78200
O1379       O  0.70095634  0.10525374  0.24633949    -0.81600
O1380       O  0.81556069  0.09485455  0.24477547    -0.79400
O1381       O  0.80093077  0.39359935  0.25197314    -0.78100
O1382       O  0.75465353  0.44754666  0.35462156    -0.79600
O1383       O  0.75974307  0.06409430  0.34597910    -0.81500
O1384       O  0.74712706  0.40235867  0.31521929    -0.78300
O1385       O  0.76108841  0.10410824  0.30049419    -0.81000
O1386       O  0.64828862  0.45022128  0.26161797    -0.76700
O1387       O  0.84609098  0.43271471  0.24512484    -0.76700
O1388       O  0.85487779  0.04928875  0.24794974    -0.76400
O1389       O  0.65536117  0.06655074  0.25205723    -0.79900
O1390       O  0.70554917  0.50724517  0.35693783    -0.79300
O1391       O  0.81728557  0.49899150  0.34561135    -0.77600
Eu1392     Eu  0.68177783  0.50599030  0.25739471     2.39800
Eu1393     Eu  0.82230461  0.49316064  0.24505917     2.39600
Eu1394     Eu  0.74607731  0.42750427  0.25507730     2.38400
Eu1395     Eu  0.75594114  0.07119349  0.24559588     2.39900
Eu1396     Eu  0.75825562  0.50234024  0.32110154     2.39800
O1397       O  0.78956772  0.03430246  0.28260656    -0.92000
O1398       O  0.71651376  0.46795756  0.29163766    -0.90900
C1399       C  0.67278140  0.50960904  0.34988445     1.03100
C1400       C  0.84842916  0.49576324  0.33300437     1.01900
C1401       C  0.65529525  0.41682674  0.26089287     1.01200
C1402       C  0.66809415  0.09787217  0.24897278     1.03300
C1403       C  0.84688603  0.08227132  0.24631977     1.02200
C1404       C  0.83363092  0.40112245  0.24809173     1.01000
C1405       C  0.75051506  0.41475865  0.34689235     1.01100
C1406       C  0.76178460  0.09592725  0.33350423     1.03700
H1407       H  0.80218319  0.44633879  0.30005123     0.31100
O1408       O  0.78777212  0.46143581  0.28558666    -1.04200
H1409       H  0.70700593  0.05812655  0.30055505     0.33100
O1410       O  0.71945321  0.04138325  0.28600844    -1.06800
O1411       O  0.70571743  0.14450888  0.50469986    -0.79300
O1412       O  0.68727652  0.34451178  0.49222898    -0.80900
O1413       O  0.64805641  0.24101543  0.04595626    -0.77900
O1414       O  0.65693381  0.24082843  0.43870126    -0.76300
O1415       O  0.70194054  0.23909142  0.39861789    -0.78100
O1416       O  0.68552893  0.24851639  0.09260049    -0.79000
O1417       O  0.64831461  0.29873724  0.49578119    -0.80300
O1418       O  0.65965193  0.18298392  0.50142013    -0.80600
Eu1419     Eu  0.68192685  0.24366729  0.50011778     2.39200
O1420       O  0.71669351  0.27856036  0.46213778    -0.88100
O1421       O  0.71849182  0.21176310  0.03265979    -0.91700
C1422       C  0.67287350  0.15161933  0.50298732     1.03000
C1423       C  0.65583481  0.33184269  0.49304578     1.02800
C1424       C  0.65462395  0.24408178  0.07935751     1.02700
C1425       C  0.66925574  0.23933765  0.40662267     1.00600
H1426       H  0.69388951  0.29664670  0.03974556     0.30300
O1427       O  0.71107833  0.28270767  0.02731457    -1.00500
H1428       H  0.70908402  0.19213668  0.45267920     0.30400
O1429       O  0.72174762  0.20884891  0.46709641    -1.03000
O1430       O  0.80262126  0.35389215  0.49641860    -0.80300
O1431       O  0.81901070  0.15443774  0.50966517    -0.79800
O1432       O  0.74025938  0.31472081  0.09362714    -0.78200
O1433       O  0.75408004  0.29777950  0.39576772    -0.81600
O1434       O  0.76205267  0.18383916  0.40510174    -0.79400
O1435       O  0.74867410  0.19971623  0.10358198    -0.78100
O1436       O  0.84691004  0.25764211  0.06545732    -0.79600
O1437       O  0.85567227  0.25447713  0.44829575    -0.81500
O1438       O  0.80079827  0.25804640  0.10402493    -0.78300
O1439       O  0.81556941  0.24742140  0.40391182    -0.81000
O1440       O  0.74043503  0.35420593  0.04772181    -0.76700
O1441       O  0.75761336  0.15401429  0.06480327    -0.76700
O1442       O  0.76354367  0.14463416  0.45098380    -0.76400
O1443       O  0.74773414  0.34351832  0.43477296    -0.79900
O1444       O  0.84836803  0.31537248  0.50248856    -0.79300
O1445       O  0.85813254  0.20010630  0.50908064    -0.77600
Eu1446     Eu  0.74742905  0.32018141  0.49563862     2.39800
Eu1447     Eu  0.75969843  0.17899216  0.50529727     2.39600
Eu1448     Eu  0.74595130  0.25398754  0.06944920     2.38400
Eu1449     Eu  0.75711808  0.24367767  0.43037440     2.39900
Eu1450     Eu  0.82456241  0.25515501  0.50460439     2.39800
O1451       O  0.79500527  0.21375969  0.46877456    -0.92000
O1452       O  0.78162046  0.29048768  0.03464405    -0.90900
C1453       C  0.83550683  0.34676190  0.49933300     1.03100
C1454       C  0.85037427  0.16700184  0.51044298     1.01900
C1455       C  0.73926717  0.34651267  0.08093661     1.01200
C1456       C  0.75057676  0.33071469  0.40319921     1.03300
C1457       C  0.76366086  0.15219245  0.41784545     1.02200
C1458       C  0.75328662  0.16689037  0.09627836     1.01000
C1459       C  0.83386208  0.25817104  0.09687254     1.01100
C1460       C  0.84702940  0.25149736  0.41553028     1.03700
H1461       H  0.80219670  0.20616378  0.05667981     0.31100
O1462       O  0.78779612  0.21863261  0.03985879    -1.04200
H1463       H  0.80167285  0.30004871  0.44943332     0.33100
O1464       O  0.78776867  0.28514633  0.46463918    -1.06800
C1465       C  0.75510351  0.10775807  0.12303897    -0.15600
C1466       C  0.75367442  0.14283221  0.12683273    -0.30800
H1467       H  0.75603193  0.09626772  0.09670848     0.13400
H1468       H  0.75194104  0.15433865  0.15312160     0.14000
C1469       C  0.73849619  0.37304646  0.14107447    -0.15600
C1470       C  0.73759762  0.37689146  0.10570974    -0.30800
H1471       H  0.73910171  0.34663666  0.15234060     0.13400
H1472       H  0.73709488  0.40327485  0.09437809     0.14000
C1473       C  0.74982456  0.39021120  0.37704110    -0.15600
C1474       C  0.75003101  0.35508716  0.37288347    -0.30800
H1475       H  0.75005775  0.40150221  0.40347563     0.13400
H1476       H  0.75064583  0.34377606  0.34646705     0.14000
C1477       C  0.76419479  0.12595642  0.35816435    -0.15600
C1478       C  0.76481663  0.12190533  0.39336192    -0.30800
H1479       H  0.76424385  0.15236555  0.34685405     0.13400
H1480       H  0.76484837  0.09552653  0.40472245     0.14000
C1481       C  0.87172641  0.14208553  0.24390067    -0.15600
C1482       C  0.87625665  0.10707164  0.24638806    -0.30800
H1483       H  0.84563330  0.15316889  0.24150456     0.13400
H1484       H  0.90239399  0.09606029  0.24862402     0.14000
C1485       C  0.89305265  0.37524145  0.24325042    -0.15600
C1486       C  0.85828494  0.37101889  0.24713435    -0.30800
H1487       H  0.90394659  0.40163631  0.24085561     0.13400
H1488       H  0.84746035  0.34463848  0.25009415     0.14000
C1489       C  0.60847110  0.12265768  0.25024984    -0.15600
C1490       C  0.64333833  0.12758874  0.24874275    -0.30800
H1491       H  0.59766253  0.09612556  0.25098308     0.13400
H1492       H  0.65411786  0.15411998  0.24754457     0.14000
C1493       C  0.62886572  0.35720915  0.25647125    -0.15600
C1494       C  0.62514316  0.39225730  0.26121049    -0.30800
H1495       H  0.65487973  0.34597524  0.25392963     0.13400
H1496       H  0.59915943  0.40347226  0.26404579     0.14000
C1497       C  0.89346224  0.25579648  0.12230062    -0.15600
C1498       C  0.85852438  0.25809191  0.12693450    -0.30800
H1499       H  0.90433263  0.25459299  0.09576897     0.13400
H1500       H  0.84759764  0.25888480  0.15346261     0.14000
C1501       C  0.62762902  0.24170888  0.13928577    -0.15600
C1502       C  0.62412099  0.24266978  0.10381238    -0.30800
H1503       H  0.65370373  0.24151687  0.15066420     0.13400
H1504       H  0.59813244  0.24240833  0.09225068     0.14000
C1505       C  0.61053229  0.24222355  0.37817884    -0.15600
C1506       C  0.64524312  0.23827766  0.37571635    -0.30800
H1507       H  0.59880918  0.24535820  0.40418913     0.13400
H1508       H  0.65693760  0.23529489  0.34967760     0.14000
C1509       C  0.87086424  0.25093225  0.35489987    -0.15600
C1510       C  0.87581007  0.25288430  0.38997657    -0.30800
H1511       H  0.84463706  0.24895788  0.34405086     0.13400
H1512       H  0.90207763  0.25546427  0.40059773     0.14000
C1513       C  0.89375793  0.37374955  0.00805921    -0.15600
C1514       C  0.85883991  0.37777742  0.00507671    -0.30800
H1515       H  0.90481473  0.34734851  0.00935070     0.13400
H1516       H  0.84863682  0.40350102  0.49840938     0.14000
C1517       C  0.87987313  0.10873954  0.99969937    -0.15600
C1518       C  0.88294973  0.14374189  0.00488659    -0.30800
H1519       H  0.84929923  0.09601612  0.50737706     0.13400
H1520       H  0.90878973  0.15543698  0.00709518     0.14000
C1521       C  0.62750198  0.38718998  0.99023319    -0.15600
C1522       C  0.62400485  0.35221491  0.98529464    -0.30800
H1523       H  0.65351172  0.39839023  0.99297314     0.13400
H1524       H  0.59965922  0.34509678  0.49284768     0.14000
C1525       C  0.65017473  0.11652196  0.99418840    -0.15600
C1526       C  0.61547691  0.12028612  0.99031657    -0.30800
H1527       H  0.66122116  0.09029466  0.99752798     0.13400
H1528       H  0.60322709  0.15216679  0.50124900     0.14000
C1529       C  0.89688766  0.00292681  0.37422041    -0.15600
C1530       C  0.86321652  0.99399933  0.37443676    -0.30800
H1531       H  0.84720653  0.49916582  0.40414997     0.13400
H1532       H  0.85142811  0.98688450  0.39963436     0.14000
C1533       C  0.64327030  0.01230645  0.37693121    -0.15600
C1534       C  0.60874170  0.01256146  0.37256024    -0.30800
H1535       H  0.65431259  0.01181437  0.40342657     0.13400
H1536       H  0.60351941  0.51784097  0.34969609     0.14000
C1537       C  0.62669720  0.00396929  0.13989034    -0.15600
C1538       C  0.62984259  0.99980209  0.10479683    -0.30800
H1539       H  0.60089080  0.00768335  0.15131607     0.13400
H1540       H  0.65371550  0.49478726  0.10068168     0.14000
C1541       C  0.89546262  0.99668908  0.12556523    -0.15600
C1542       C  0.86062210  0.99138404  0.12379324    -0.30800
H1543       H  0.90714119  0.00066170  0.15145842     0.13400
H1544       H  0.84864624  0.48976839  0.09760919     0.14000
C1545       C  0.49358515  0.13101187  0.39469657    -0.15600
C1546       C  0.48849960  0.12681015  0.36033806    -0.30800
H1547       H  0.99056620  0.15639997  0.41134445     0.13400
H1548       H  0.48453526  0.10047622  0.34953823     0.14000
C1549       C  0.50981795  0.36317939  0.36890601    -0.15600
C1550       C  0.50926416  0.39839512  0.36558403    -0.30800
H1551       H  0.00493981  0.34849769  0.39854108     0.13400
H1552       H  0.50844878  0.41030694  0.33943048     0.14000
C1553       C  0.51214255  0.38896422  0.12393879    -0.15600
C1554       C  0.51252044  0.35408761  0.12122039    -0.30800
H1555       H  0.51196575  0.40085919  0.15013412     0.13400
H1556       H  0.01217955  0.34366926  0.09771265     0.14000
C1557       C  0.51212311  0.12550059  0.10732888    -0.15600
C1558       C  0.50324673  0.12229033  0.14113038    -0.30800
H1559       H  0.51811763  0.15136648  0.09637278     0.13400
H1560       H  0.99919201  0.09686732  0.14815122     0.14000
O1561       O  0.50192355  0.06244918  0.60173068    -0.79300
O1562       O  0.49150229  0.05236137  0.89594949    -0.80900
O1563       O  0.55718848  0.10434368  0.50267927    -0.77900
O1564       O  0.93625918  0.09433283  0.51325354    -0.76300
O1565       O  0.89739418  0.04910627  0.50539296    -0.78100
O1566       O  0.60148888  0.06432000  0.49735853    -0.79000
O1567       O  0.49693635  0.09686241  0.93631388    -0.80300
O1568       O  0.50171791  0.10376316  0.55770940    -0.80600
Eu1569     Eu  0.50164356  0.07309249  0.50284196     2.39200
O1570       O  0.96564914  0.02937864  0.96079597    -0.88100
O1571       O  0.53964711  0.03883886  0.53618815    -0.91700
C1572       C  0.50109692  0.09490156  0.59022515     1.03000
C1573       C  0.49388995  0.08497262  0.90437733     1.02800
C1574       C  0.58964384  0.09606508  0.50038336     1.02700
C1575       C  0.90500811  0.08195919  0.50977923     1.00600
H1576       H  0.54639081  0.04897535  0.94282103     0.30300
O1577       O  0.53313186  0.03480475  0.95930146    -1.00500
H1578       H  0.94873747  0.03971354  0.55904192     0.30400
O1579       O  0.96412674  0.02747471  0.54296757    -1.03000
O1580       O  0.50246448  0.45299145  0.89802667    -0.80300
O1581       O  0.50511402  0.42976718  0.59049825    -0.79800
O1582       O  0.59279135  0.99850499  0.93258226    -0.78200
O1583       O  0.90460970  0.99028410  0.93835980    -0.81600
O1584       O  0.90355622  0.98904353  0.56256818    -0.79400
O1585       O  0.60528303  0.00785054  0.55126689    -0.78100
O1586       O  0.56770857  0.40372097  0.48873774    -0.79600
O1587       O  0.95200363  0.39620298  0.49615219    -0.81500
O1588       O  0.60668913  0.44960625  0.49147346    -0.78300
O1589       O  0.90676008  0.43498246  0.50403839    -0.81000
O1590       O  0.54628308  0.99767710  0.89451275    -0.76700
O1591       O  0.56566776  0.00652947  0.59689077    -0.76700
O1592       O  0.94679015  0.98520492  0.60457410    -0.76400
O1593       O  0.94804926  0.98918334  0.89665716    -0.79900
O1594       O  0.50742464  0.40641375  0.93652565    -0.79300
O1595       O  0.50672686  0.39166277  0.54351021    -0.77600
Eu1596     Eu  0.49284276  0.99873289  0.92967948     2.39800
Eu1597     Eu  0.50525713  0.00236787  0.57253890     2.39600
Eu1598     Eu  0.57365395  0.00609629  0.49578031     2.38400
Eu1599     Eu  0.93105795  0.99431077  0.50169167     2.39900
Eu1600     Eu  0.50767194  0.42837084  0.49034524     2.39800
O1601       O  0.97264390  0.46203062  0.53560745    -0.92000
O1602       O  0.53974652  0.46672855  0.96289028    -0.90900
C1603       C  0.50502439  0.42009656  0.90500231     1.03100
C1604       C  0.50516892  0.39830054  0.57687451     1.01900
C1605       C  0.57920960  0.99794337  0.90131485     1.01200
C1606       C  0.91587598  0.98910731  0.90563740     1.02500
C1607       C  0.91445896  0.98612390  0.59517266     1.02200
C1608       C  0.59721659  0.00821660  0.58426288     1.01000
C1609       C  0.59914476  0.41643068  0.48948510     1.01100
C1610       C  0.91928897  0.40350984  0.50006948     1.03700
H1611       H  0.55771274  0.44775708  0.54237319     0.31100
O1612       O  0.54199868  0.46287289  0.52935626    -1.04200
H1613       H  0.95063689  0.44713684  0.95576111     0.33100
O1614       O  0.96510699  0.46267047  0.96978698    -1.06800
O1615       O  0.49394214  0.18702191  0.65891939    -0.79300
O1616       O  0.50423735  0.20119098  0.85715396    -0.80900
O1617       O  0.55425207  0.15129398  0.75541420    -0.77900
O1618       O  0.94022366  0.14996897  0.74719879    -0.76300
O1619       O  0.89966975  0.19402063  0.74208209    -0.78100
O1620       O  0.59977180  0.19030072  0.74927717    -0.79000
O1621       O  0.49703130  0.15663435  0.81730236    -0.80300
O1622       O  0.49519007  0.14779055  0.70506322    -0.80600
Eu1623     Eu  0.49742431  0.18260619  0.75763051     2.39200
O1624       O  0.96091891  0.21327408  0.78298150    -0.88100
O1625       O  0.53155182  0.21585062  0.71764547    -0.91700
C1626       C  0.49464594  0.15513609  0.67207834     1.03000
C1627       C  0.50000293  0.16868062  0.84911770     1.02800
C1628       C  0.58715993  0.15869268  0.75261316     1.02700
C1629       C  0.90830426  0.16128734  0.74471454     1.00600
H1630       H  0.55316302  0.20199900  0.80219281     0.30300
O1631       O  0.53880442  0.21697934  0.78744585    -1.00500
H1632       H  0.95597784  0.20317300  0.69399442     0.30400
O1633       O  0.96937328  0.21691828  0.71070593    -1.03000
O1634       O  0.51404932  0.30859806  0.85401842    -0.80300
O1635       O  0.49654711  0.30892435  0.65117204    -0.79800
O1636       O  0.60546719  0.24967769  0.80586923    -0.78200
O1637       O  0.89625927  0.24800070  0.79924762    -0.81600
O1638       O  0.90978426  0.25469737  0.68265411    -0.79400
O1639       O  0.59463581  0.24606431  0.68459406    -0.78100
O1640       O  0.56091618  0.35262863  0.74605819    -0.79600
O1641       O  0.93883057  0.34970507  0.75350301    -0.81500
O1642       O  0.60350424  0.31013713  0.74587181    -0.78300
O1643       O  0.89883229  0.30549323  0.74542131    -0.81000
O1644       O  0.56370065  0.25315637  0.84915295    -0.76700
O1645       O  0.54796141  0.24502493  0.64643190    -0.76700
O1646       O  0.95610919  0.25737892  0.64436053    -0.76400
O1647       O  0.93486275  0.24770413  0.84539946    -0.79900
O1648       O  0.51158618  0.35207220  0.81219316    -0.79300
O1649       O  0.50194514  0.35120871  0.69422502    -0.77600
Eu1650     Eu  0.50622463  0.25486703  0.82322627     2.39800
Eu1651     Eu  0.49448870  0.25006428  0.68136262     2.39600
Eu1652     Eu  0.57393521  0.25041137  0.74764383     2.38400
Eu1653     Eu  0.93028380  0.25043030  0.74434431     2.39900
Eu1654     Eu  0.50523658  0.32381367  0.75248319     2.39800
O1655       O  0.96861729  0.28843928  0.71433293    -0.92000
O1656       O  0.54249330  0.28812810  0.78568595    -0.90900
C1657       C  0.51455404  0.34083449  0.84454863     1.03100
C1658       C  0.49932032  0.34144989  0.66173917     1.01900
C1659       C  0.59548579  0.25102129  0.83872433     1.01200
C1660       C  0.90376670  0.24753020  0.83247658     1.03300
C1661       C  0.92316621  0.25689802  0.65129315     1.02200
C1662       C  0.58096986  0.24444626  0.65304706     1.01000
C1663       C  0.59293793  0.34285691  0.74523524     1.01100
C1664       C  0.90727658  0.33800553  0.74930377     1.03700
H1665       H  0.54890091  0.29899928  0.69741155     0.31100
O1666       O  0.53515021  0.28519047  0.71379794    -1.04200
H1667       H  0.94405275  0.29899548  0.80082791     0.33100
O1668       O  0.95987543  0.28523790  0.78649189    -1.06800
O1669       O  0.84770443  0.50585592  0.68536668    -0.79300
O1670       O  0.64795823  0.49580530  0.70307588    -0.80900
O1671       O  0.74815275  0.44013991  0.65367025    -0.77900
O1672       O  0.74848235  0.07209384  0.66290056    -0.76300
O1673       O  0.75631892  0.10867245  0.71051529    -0.78100
O1674       O  0.75711237  0.39979713  0.69800316    -0.79000
O1675       O  0.68634596  0.49928075  0.65665344    -0.80300
O1676       O  0.80227636  0.50131527  0.64615398    -0.80600
Eu1677     Eu  0.74734952  0.50128640  0.68010026     2.39200
O1678       O  0.71677121  0.04221038  0.72327841    -0.88100
O1679       O  0.78841554  0.46911757  0.71377843    -0.91700
C1680       C  0.83514941  0.50288961  0.65373321     1.03000
C1681       C  0.65502461  0.49719996  0.66976477     1.02800
C1682       C  0.75221234  0.40805467  0.66542956     1.02700
C1683       C  0.75230450  0.10310147  0.67731724     1.00600
H1684       H  0.70410343  0.44789526  0.70654252     0.30300
O1685       O  0.71846257  0.46386142  0.72012819    -1.00500
H1686       H  0.80220770  0.04840635  0.70501702     0.30400
O1687       O  0.78682388  0.03384691  0.71914820    -1.03000
O1688       O  0.65905847  0.49685421  0.81879996    -0.80300
O1689       O  0.85729045  0.50804428  0.80205202    -0.79800
O1690       O  0.70689858  0.39587634  0.75608280    -0.78200
O1691       O  0.70307372  0.10514818  0.76130682    -0.81600
O1692       O  0.81958348  0.09089605  0.75671123    -0.79400
O1693       O  0.82034098  0.40852631  0.75014198    -0.78100
O1694       O  0.76134018  0.44713990  0.85459102    -0.79600
O1695       O  0.75519919  0.04179440  0.85931695    -0.81500
O1696       O  0.76115070  0.40340881  0.81305263    -0.78300
O1697       O  0.76297003  0.08954955  0.82314163    -0.81000
O1698       O  0.66050149  0.43424961  0.75631027    -0.76700
O1699       O  0.85885761  0.45451991  0.74510516    -0.76700
O1700       O  0.85690129  0.04388414  0.75080512    -0.76400
O1701       O  0.65585461  0.06813291  0.75715534    -0.79900
O1702       O  0.70503723  0.50041143  0.85739615    -0.79300
O1703       O  0.81815480  0.50409148  0.84766989    -0.77600
Eu1704     Eu  0.68206862  0.49718959  0.75783234     2.39800
Eu1705     Eu  0.82428249  0.50788830  0.74629225     2.39600
Eu1706     Eu  0.75970136  0.43122347  0.75367135     2.38400
Eu1707     Eu  0.75771455  0.06973219  0.76100419     2.39900
Eu1708     Eu  0.75902963  0.50189479  0.82297307     2.39800
O1709       O  0.78950361  0.02567721  0.79015879    -0.92000
O1710       O  0.72272586  0.46378297  0.79097095    -0.90900
C1711       C  0.67220765  0.49865784  0.85029405     1.03100
C1712       C  0.84947965  0.50601132  0.83519690     1.01900
C1713       C  0.67401302  0.40263946  0.75580325     1.01200
C1714       C  0.66983224  0.09921864  0.75889398     1.03300
C1715       C  0.85055297  0.07728175  0.75305635     1.02200
C1716       C  0.85155120  0.42153339  0.74730347     1.01000
C1717       C  0.76113282  0.41467741  0.84537343     1.01100
C1718       C  0.76062289  0.07481483  0.85399732     1.03700
H1719       H  0.81173295  0.45543560  0.79957907     0.31100
O1720       O  0.79544583  0.46914422  0.78572436    -1.04200
H1721       H  0.70481115  0.04975045  0.80993076     0.33100
O1722       O  0.71719940  0.03532731  0.79300721    -1.06800
O1723       O  0.70689071  0.14072927  0.99961869    -0.79300
O1724       O  0.68558435  0.34159162  0.98748421    -0.80900
O1725       O  0.65298797  0.24317207  0.56053085    -0.77900
O1726       O  0.66294187  0.23952227  0.92819466    -0.76300
O1727       O  0.70997296  0.23926436  0.89087819    -0.78100
O1728       O  0.69549931  0.25050805  0.60262299    -0.79000
O1729       O  0.64772708  0.29464861  0.98583983    -0.80300
O1730       O  0.66106782  0.17882356  0.99143368    -0.80600
Eu1731     Eu  0.68286073  0.24059464  0.99086056     2.39200
O1732       O  0.71824572  0.27855632  0.95690352    -0.88100
O1733       O  0.72038088  0.21371464  0.53824338    -0.91700
C1734       C  0.67413611  0.14742800  0.99507786     1.03000
C1735       C  0.65450030  0.32804319  0.98586690     1.02800
C1736       C  0.66357055  0.24618442  0.59320384     1.02700
C1737       C  0.67698795  0.23935419  0.89693076     1.00600
H1738       H  0.69807935  0.29917604  0.54770118     0.30300
O1739       O  0.71395574  0.28456051  0.53426487    -1.00500
H1740       H  0.71371564  0.18957288  0.94591523     0.30400
O1741       O  0.72504731  0.20619874  0.96155237    -1.03000
O1742       O  0.80169656  0.35440071  0.99832448    -0.80300
O1743       O  0.82107719  0.15385657  0.00594191    -0.79800
O1744       O  0.74871484  0.31659782  0.59582419    -0.78200
O1745       O  0.76035314  0.29789376  0.89369278    -0.81600
O1746       O  0.77146682  0.18738607  0.90254606    -0.79400
O1747       O  0.75271937  0.19498759  0.60460315    -0.78100
O1748       O  0.85120444  0.25936518  0.56370413    -0.79600
O1749       O  0.85777323  0.25270519  0.95059489    -0.81500
O1750       O  0.80709511  0.25942632  0.60464417    -0.78300
O1751       O  0.81951621  0.24596270  0.90474468    -0.81000
O1752       O  0.74552087  0.35530002  0.54929040    -0.76700
O1753       O  0.75759548  0.15190746  0.56237498    -0.76700
O1754       O  0.76879492  0.14517641  0.94581867    -0.76400
O1755       O  0.75078689  0.34360613  0.93201028    -0.79900
O1756       O  0.84725117  0.31592810  0.00618702    -0.79300
O1757       O  0.85852421  0.20101121  0.00728513    -0.77600
Eu1758     Eu  0.74666829  0.32024814  0.99287563     2.39800
Eu1759     Eu  0.76039432  0.17647844  0.00324774     2.39600
Eu1760     Eu  0.75154397  0.25406474  0.57350026     2.38400
Eu1761     Eu  0.76091351  0.24441019  0.92865200     2.39900
Eu1762     Eu  0.82365483  0.25554718  0.00544702     2.39800
O1763       O  0.79561076  0.21414186  0.96937000    -0.92000
O1764       O  0.78445544  0.29030043  0.53564917    -0.90900
C1765       C  0.83444523  0.34735554  0.00315607     1.03100
C1766       C  0.85209456  0.16757169  0.00639236     1.01900
C1767       C  0.74685613  0.34827877  0.58252303     1.01200
C1768       C  0.75616960  0.33072488  0.90075442     1.03300
C1769       C  0.77240376  0.15529874  0.91322575     1.02200
C1770       C  0.75481834  0.16218058  0.59446331     1.01000
C1771       C  0.83956108  0.26036992  0.59578403     1.01100
C1772       C  0.85046412  0.24892888  0.91754935     1.03700
H1773       H  0.80558159  0.20572622  0.55738485     0.31100
O1774       O  0.79074205  0.21868638  0.54132432    -1.04200
H1775       H  0.80438690  0.30122921  0.94950498     0.33100
O1776       O  0.78955851  0.28633186  0.96386368    -1.06800
C1777       C  0.75229564  0.13509437  0.65471651    -0.15600
C1778       C  0.75395023  0.13242396  0.61961914    -0.30800
H1779       H  0.75185974  0.16099089  0.66709922     0.13400
H1780       H  0.75512803  0.10618744  0.60796242     0.14000
C1781       C  0.75124437  0.37730827  0.64112976    -0.15600
C1782       C  0.74648273  0.37963441  0.60614975    -0.30800
H1783       H  0.75491520  0.35135319  0.65287750     0.13400
H1784       H  0.74315035  0.40550695  0.59413645     0.14000
C1785       C  0.76005742  0.38964163  0.87487138    -0.15600
C1786       C  0.75805215  0.35479822  0.87038264    -0.30800
H1787       H  0.76022540  0.40059304  0.90146733     0.13400
H1788       H  0.75845887  0.34359234  0.84391562     0.14000
C1789       C  0.76321242  0.09697796  0.88595157    -0.15600
C1790       C  0.77667324  0.12945822  0.88459728    -0.30800
H1791       H  0.75240404  0.08698721  0.91060193     0.13400
H1792       H  0.78709971  0.13922365  0.85966284     0.14000
C1793       C  0.87844878  0.13613719  0.74568731    -0.15600
C1794       C  0.88146980  0.10115798  0.75102977    -0.30800
H1795       H  0.85246673  0.14737920  0.74281326     0.13400
H1796       H  0.90731736  0.08950878  0.75332274     0.14000
C1797       C  0.87773981  0.36262134  0.74925629    -0.15600
C1798       C  0.88170658  0.39753847  0.74711583    -0.30800
H1799       H  0.85163731  0.35131651  0.75034236     0.13400
H1800       H  0.90774053  0.40890467  0.74532764     0.14000
C1801       C  0.61142588  0.12798257  0.75367824    -0.15600
C1802       C  0.64639890  0.13068355  0.75754778    -0.30800
H1803       H  0.59965576  0.10190320  0.75223154     0.13400
H1804       H  0.65827912  0.15667258  0.75952330     0.14000
C1805       C  0.61780649  0.37281635  0.74396757    -0.15600
C1806       C  0.65104196  0.37105326  0.75457061    -0.30800
H1807       H  0.60720527  0.39843510  0.73658828     0.13400
H1808       H  0.66201541  0.34563522  0.76199515     0.14000
C1809       C  0.89920959  0.25846070  0.62081719    -0.15600
C1810       C  0.86459186  0.26187217  0.62522810    -0.30800
H1811       H  0.91018328  0.25611770  0.59439196     0.13400
H1812       H  0.85383307  0.26431456  0.65173161     0.14000
C1813       C  0.60409020  0.24246516  0.62131386    -0.15600
C1814       C  0.63889923  0.24514934  0.62361205    -0.30800
H1815       H  0.59202077  0.24019930  0.59539871     0.13400
H1816       H  0.65047393  0.24780651  0.64974490     0.14000
C1817       C  0.62072645  0.25000970  0.86812240    -0.15600
C1818       C  0.65411652  0.24015817  0.86537512    -0.30800
H1819       H  0.61043609  0.25654753  0.89414227     0.13400
H1820       H  0.66510043  0.23389892  0.83961583     0.14000
C1821       C  0.87453653  0.24715115  0.85745489    -0.15600
C1822       C  0.87972842  0.24815838  0.89261859    -0.30800
H1823       H  0.84822764  0.24669842  0.84664009     0.13400
H1824       H  0.90602222  0.24906490  0.90342803     0.14000
C1825       C  0.89482970  0.37321517  0.49990532    -0.15600
C1826       C  0.85986123  0.37715454  0.49919641    -0.30800
H1827       H  0.90606779  0.34685394  0.49990107     0.13400
H1828       H  0.84779066  0.40414021  0.00312561     0.14000
C1829       C  0.87542313  0.10689333  0.51028778    -0.15600
C1830       C  0.87987595  0.14202987  0.51268191    -0.30800
H1831       H  0.85392483  0.09722569  0.99776468     0.13400
H1832       H  0.90602836  0.15297278  0.51504998     0.14000
C1833       C  0.62927007  0.39174167  0.48876013    -0.15600
C1834       C  0.62569165  0.35646460  0.49122747    -0.30800
H1835       H  0.65530228  0.40315481  0.48756798     0.13400
H1836       H  0.59808340  0.34080557  0.98256956     0.14000
C1837       C  0.64894161  0.12127511  0.50236296    -0.15600
C1838       C  0.61425474  0.12570785  0.50119926    -0.30800
H1839       H  0.66006093  0.09486335  0.50277810     0.13400
H1840       H  0.60468448  0.14669333  0.98749443     0.14000
C1841       C  0.89212356  0.98840870  0.87441723    -0.15600
C1842       C  0.85799624  0.98184921  0.87576111    -0.30800
H1843       H  0.84793547  0.49644099  0.90587009     0.13400
H1844       H  0.84619173  0.97686529  0.90146055     0.14000
C1845       C  0.63748004  0.99646161  0.87501042    -0.15600
C1846       C  0.60283132  0.99818887  0.87076375    -0.30800
H1847       H  0.64857943  0.99401612  0.90137201     0.13400
H1848       H  0.60245923  0.50221043  0.85054180     0.14000
C1849       C  0.62366242  0.01608662  0.64320551    -0.15600
C1850       C  0.62723161  0.01039416  0.60854208    -0.30800
H1851       H  0.59769932  0.01952388  0.65437934     0.13400
H1852       H  0.65325467  0.50014030  0.59863479     0.14000
C1853       C  0.88932403  0.98450551  0.62533619    -0.15600
C1854       C  0.85568950  0.99434255  0.62336705    -0.30800
H1855       H  0.89986948  0.97731562  0.65104558     0.13400
H1856       H  0.84887033  0.50087179  0.59708202     0.14000
C1857       C  0.49374363  0.10967832  0.87461893    -0.15600
C1858       C  0.49859089  0.14423281  0.87907202    -0.30800
H1859       H  0.99663455  0.08919503  0.84025749     0.13400
H1860       H  0.50191132  0.15503436  0.90550199     0.14000
C1861       C  0.51804660  0.36519747  0.87427884    -0.15600
C1862       C  0.50477744  0.39746546  0.87361832    -0.30800
H1863       H  0.99660931  0.34433157  0.90781691     0.13400
H1864       H  0.49390213  0.40791587  0.84917919     0.14000
C1865       C  0.50308176  0.36720949  0.60083118    -0.15600
C1866       C  0.50004306  0.37093180  0.63598832    -0.30800
H1867       H  0.50417390  0.34091789  0.58936488     0.13400
H1868       H  0.00398752  0.40513337  0.65499936     0.14000
C1869       C  0.49915238  0.12569318  0.61414443    -0.15600
C1870       C  0.49543136  0.12356771  0.64900232    -0.30800
H1871       H  0.50059503  0.15172019  0.60201933     0.13400
H1872       H  0.00850118  0.14951171  0.60235525     0.14000
O1873       O  0.50570488  0.55596021  0.10435734    -0.79300
O1874       O  0.49547147  0.56765372  0.40548966    -0.80900
O1875       O  0.56359604  0.60061539  0.00666926    -0.77900
O1876       O  0.93216615  0.59770206  0.00486790    -0.76300
O1877       O  0.89512879  0.55028381  0.00928739    -0.78100
O1878       O  0.60479542  0.55689366  0.00128106    -0.79000
O1879       O  0.49297714  0.60631624  0.45179477    -0.80300
O1880       O  0.50224101  0.60121639  0.06455701    -0.80600
Eu1881     Eu  0.50275654  0.57361180  0.00573975     2.39200
O1882       O  0.95902503  0.53637206  0.46791187    -0.88100
O1883       O  0.54144088  0.53707676  0.03713029    -0.91700
C1884       C  0.50369059  0.58895440  0.09639084     1.03000
C1885       C  0.49282229  0.59900548  0.41855952     1.02800
C1886       C  0.59578310  0.58923828  0.00462464     1.02700
C1887       C  0.90114120  0.58371117  0.00707306     1.00600
H1888       H  0.54829534  0.55982087  0.45206071     0.30300
O1889       O  0.53544916  0.54278590  0.46596508    -1.00500
H1890       H  0.95033791  0.54909677  0.05740816     0.30400
O1891       O  0.96485854  0.53590313  0.04121191    -1.03000
O1892       O  0.50492968  0.95154809  0.39740508    -0.80300
O1893       O  0.50848890  0.94322203  0.10070346    -0.79800
O1894       O  0.60102111  0.51044235  0.43767047    -0.78200
O1895       O  0.89612560  0.49605832  0.45074915    -0.81600
O1896       O  0.90637185  0.49239498  0.06799520    -0.79400
O1897       O  0.60702873  0.49930583  0.05372696    -0.78100
O1898       O  0.55159403  0.89846480  0.99718308    -0.79600
O1899       O  0.95552401  0.89382344  0.00669114    -0.81500
O1900       O  0.59555561  0.93921262  0.99182290    -0.78300
O1901       O  0.90995624  0.93296703  0.00412523    -0.81000
O1902       O  0.55704664  0.51375232  0.39697404    -0.76700
O1903       O  0.56664205  0.50059510  0.09832507    -0.76700
O1904       O  0.95182176  0.49649830  0.10703599    -0.76400
O1905       O  0.93400054  0.50283804  0.40437044    -0.79900
O1906       O  0.50708941  0.90684978  0.43816644    -0.79300
O1907       O  0.50197484  0.90150404  0.05733576    -0.77600
Eu1908     Eu  0.50214821  0.50739779  0.42846942     2.39800
Eu1909     Eu  0.50731066  0.49998943  0.07195532     2.39600
Eu1910     Eu  0.57511670  0.50147065  0.99841972     2.38400
Eu1911     Eu  0.93010214  0.49601216  0.00835069     2.39900
Eu1912     Eu  0.49772910  0.93042341  0.00018081     2.39800
O1913       O  0.97264641  0.96437664  0.03693879    -0.92000
O1914       O  0.53781777  0.97068826  0.46049814    -0.90900
C1915       C  0.50696509  0.91873431  0.40615577     1.03100
C1916       C  0.50589993  0.91084373  0.08976052     1.01900
C1917       C  0.58945338  0.51319820  0.40568060     1.01200
C1918       C  0.90312212  0.49901913  0.41753595     1.02500
C1919       C  0.91903852  0.49310192  0.09952957     1.02200
C1920       C  0.59840208  0.49971372  0.08654507     1.01000
C1921       C  0.58372957  0.90719366  0.99399006     1.01100
C1922       C  0.92280406  0.90134440  0.00611670     1.03700
H1923       H  0.55298104  0.95021082  0.04620506     0.31100
O1924       O  0.53762407  0.96526894  0.03269962    -1.04200
H1925       H  0.95737337  0.95191974  0.44676743     0.33100
O1926       O  0.97067506  0.96619417  0.46307930    -1.06800
O1927       O  0.50546622  0.70639752  0.14644579    -0.79300
O1928       O  0.49343436  0.68618617  0.34716818    -0.80900
O1929       O  0.55280989  0.64839074  0.24643550    -0.77900
O1930       O  0.94353876  0.65378841  0.23823715    -0.76300
O1931       O  0.90186081  0.69728990  0.23656891    -0.78100
O1932       O  0.59832344  0.68706584  0.25374276    -0.79000
O1933       O  0.49228248  0.64733616  0.30084598    -0.80300
O1934       O  0.49865440  0.65971951  0.18445166    -0.80600
Eu1935     Eu  0.49662556  0.68140781  0.24588176     2.39200
O1936       O  0.96275970  0.71502271  0.27596758    -0.88100
O1937       O  0.53712513  0.71815935  0.21641180    -0.91700
C1938       C  0.50213567  0.67317285  0.15317546     1.03000
C1939       C  0.49171453  0.65477077  0.33411021     1.02800
C1940       C  0.58574905  0.65560009  0.24975818     1.02700
C1941       C  0.91118450  0.66466891  0.23696189     1.00600
H1942       H  0.54618661  0.69301978  0.30131788     0.30300
O1943       O  0.53359352  0.70996260  0.28713178    -1.00500
H1944       H  0.95740046  0.70954404  0.18918782     0.30400
O1945       O  0.97044916  0.72281971  0.20654859    -1.03000
O1946       O  0.50279758  0.80049888  0.35879729    -0.80300
O1947       O  0.51001148  0.82223814  0.16035715    -0.79800
O1948       O  0.59796237  0.74322189  0.31824458    -0.78200
O1949       O  0.89369173  0.75047247  0.29384856    -0.81600
O1950       O  0.90799169  0.75804847  0.17963053    -0.79400
O1951       O  0.60730478  0.75131196  0.20418619    -0.78100
O1952       O  0.56643832  0.84832597  0.26495512    -0.79600
O1953       O  0.94243727  0.85407961  0.25435891    -0.81500
O1954       O  0.60565772  0.80267951  0.26401922    -0.78300
O1955       O  0.90040131  0.81283691  0.24281987    -0.81000
O1956       O  0.55287341  0.74048459  0.35774036    -0.76700
O1957       O  0.56835740  0.75929264  0.15884693    -0.76700
O1958       O  0.95422932  0.76534443  0.14192851    -0.76400
O1959       O  0.93090222  0.74594048  0.34109070    -0.79900
O1960       O  0.50773481  0.84682032  0.32034633    -0.79300
O1961       O  0.51100112  0.86028528  0.20730590    -0.77600
Eu1962     Eu  0.49953678  0.74606203  0.32360620     2.39800
Eu1963     Eu  0.50723038  0.76042003  0.18213156     2.39600
Eu1964     Eu  0.57331322  0.74701693  0.25796673     2.38400
Eu1965     Eu  0.92994695  0.75465418  0.24086376     2.39900
Eu1966     Eu  0.50740199  0.82369851  0.26027434     2.39800
O1967       O  0.96743846  0.79474514  0.21295237    -0.92000
O1968       O  0.53913350  0.78294749  0.29456329    -0.90900
C1969       C  0.50577746  0.83366251  0.35171798     1.03100
C1970       C  0.51095786  0.85365014  0.17395127     1.01900
C1971       C  0.58549561  0.74132440  0.35001385     1.01200
C1972       C  0.90005428  0.74830043  0.32720085     1.03300
C1973       C  0.92124605  0.76195703  0.14838773     1.02200
C1974       C  0.59977950  0.75587718  0.17142510     1.01000
C1975       C  0.59778389  0.83575300  0.26557352     1.01100
C1976       C  0.91085731  0.84486032  0.24834953     1.03700
H1977       H  0.55915336  0.80423419  0.21098897     0.31100
O1978       O  0.54294095  0.78910330  0.22337645    -1.04200
H1979       H  0.94323883  0.79930480  0.30005085     0.33100
O1980       O  0.95927801  0.78587573  0.28561437    -1.06800
O1981       O  0.84846875  0.99246712  0.18732308    -0.79300
O1982       O  0.64860582  0.00658256  0.19756069    -0.80900
O1983       O  0.74333846  0.93553989  0.15620911    -0.77900
O1984       O  0.74675113  0.55039406  0.14605636    -0.76300
O1985       O  0.75452239  0.59629662  0.18486725    -0.78100
O1986       O  0.73690249  0.89626079  0.20161476    -0.79000
O1987       O  0.68808705  0.99977779  0.15241153    -0.80300
O1988       O  0.80338671  0.99172170  0.14728855    -0.80600
Eu1989     Eu  0.74720285  0.99613108  0.17913531     2.39200
O1990       O  0.71778125  0.53635523  0.21689841    -0.88100
O1991       O  0.78165118  0.96045059  0.21581021    -0.91700
C1992       C  0.83627849  0.99173780  0.15509402     1.03000
C1993       C  0.65662148  0.00348621  0.16459130     1.02800
C1994       C  0.73961126  0.90403619  0.16886067     1.02700
C1995       C  0.75015124  0.58347429  0.15321883     1.00600
H1996       H  0.69251143  0.95229188  0.20464870     0.30300
O1997       O  0.70890206  0.96665639  0.21765140    -1.00500
H1998       H  0.80147587  0.54316316  0.19367163     0.30400
O1999       O  0.78697912  0.53056817  0.21035991    -1.03000
O2000       O  0.65530745  0.01112945  0.31498278    -0.80300
O2001       O  0.85049586  0.99446085  0.31050135    -0.79800
O2002       O  0.68334831  0.90796664  0.26081554    -0.78200
O2003       O  0.70313607  0.60589786  0.24890239    -0.81600
O2004       O  0.82026479  0.59504587  0.24290354    -0.79400
O2005       O  0.79558689  0.89511554  0.24976485    -0.78100
O2006       O  0.74906399  0.94424756  0.35148785    -0.79600
O2007       O  0.76335792  0.55968628  0.34837695    -0.81500
O2008       O  0.74392959  0.90157677  0.30905312    -0.78300
O2009       O  0.76256501  0.60277850  0.30577572    -0.81000
O2010       O  0.64440170  0.95368492  0.26037860    -0.76700
O2011       O  0.84257733  0.93250253  0.24774579    -0.76700
O2012       O  0.85736275  0.54756451  0.24224143    -0.76400
O2013       O  0.65770444  0.56678019  0.25450731    -0.79900
O2014       O  0.69982214  0.00896264  0.35532512    -0.79300
O2015       O  0.80744439  0.99939221  0.35239204    -0.77600
Eu2016     Eu  0.67936070  0.00717710  0.25427731     2.39800
Eu2017     Eu  0.82227960  0.99401202  0.24889423     2.39600
Eu2018     Eu  0.74308802  0.93106717  0.25393352     2.38400
Eu2019     Eu  0.75871339  0.57244900  0.24679395     2.39900
Eu2020     Eu  0.75296593  0.00348127  0.32187551     2.39800
O2021       O  0.79351030  0.53426549  0.28142897    -0.92000
O2022       O  0.71226666  0.96975125  0.29053431    -0.90900
C2023       C  0.66746174  0.01093516  0.34696356     1.03100
C2024       C  0.83945352  0.99626287  0.34327926     1.01900
C2025       C  0.65206990  0.92065850  0.26230584     1.01200
C2026       C  0.67022143  0.59842784  0.25145298     1.03300
C2027       C  0.85132453  0.58107774  0.24185724     1.02200
C2028       C  0.82851708  0.90141257  0.24795816     1.01000
C2029       C  0.74615441  0.91167397  0.34110625     1.01100
C2030       C  0.76375193  0.59208151  0.33846351     1.03700
H2031       H  0.79778402  0.94745644  0.30178483     0.31100
O2032       O  0.78435183  0.96321265  0.28702688    -1.04200
H2033       H  0.71097923  0.55681806  0.30243829     0.33100
O2034       O  0.72326871  0.54058650  0.28714071    -1.06800
O2035       O  0.70201722  0.64726266  0.48965788    -0.79300
O2036       O  0.68666472  0.84611158  0.50609259    -0.80900
O2037       O  0.64724131  0.76087827  0.05480369    -0.77900
O2038       O  0.65655158  0.74792340  0.43891068    -0.76300
O2039       O  0.69922431  0.75936325  0.39784483    -0.78100
O2040       O  0.68797128  0.75737256  0.09897628    -0.79000
O2041       O  0.64803686  0.80018245  0.50174266    -0.80300
O2042       O  0.65695590  0.68627018  0.49715701    -0.80600
Eu2043     Eu  0.68252034  0.74600728  0.49958364     2.39200
O2044       O  0.71518048  0.78831308  0.46780670    -0.88100
O2045       O  0.71306440  0.72184476  0.03500670    -0.91700
C2046       C  0.66924102  0.65471151  0.49332204     1.03000
C2047       C  0.65523170  0.83332320  0.50370150     1.02800
C2048       C  0.65605029  0.75912620  0.08744097     1.02700
C2049       C  0.66745554  0.75320225  0.40678396     1.00600
H2050       H  0.69940417  0.80987918  0.05048841     0.30300
O2051       O  0.71366154  0.79430955  0.03629582    -1.00500
H2052       H  0.70740731  0.70379085  0.44328313     0.30400
O2053       O  0.72075051  0.71792349  0.45969521    -1.03000
O2054       O  0.80396502  0.85461944  0.51001383    -0.80300
O2055       O  0.81704574  0.65456618  0.49171813    -0.79800
O2056       O  0.74914284  0.81660995  0.09846537    -0.78200
O2057       O  0.75075257  0.82341969  0.40969139    -0.81600
O2058       O  0.75738904  0.70855272  0.39106593    -0.79400
O2059       O  0.74808257  0.70041841  0.10252237    -0.78100
O2060       O  0.84798142  0.75667377  0.05948278    -0.79600
O2061       O  0.85366754  0.75837975  0.44330947    -0.81500
O2062       O  0.80458204  0.75667374  0.10135530    -0.78300
O2063       O  0.81253505  0.76081730  0.39959044    -0.81000
O2064       O  0.75250505  0.85784256  0.05429665    -0.76700
O2065       O  0.74845565  0.65563256  0.06166217    -0.76700
O2066       O  0.76067222  0.66090066  0.42832671    -0.76400
O2067       O  0.74674534  0.86067941  0.45713273    -0.79900
O2068       O  0.84888681  0.81551625  0.50199425    -0.79300
O2069       O  0.85599072  0.70031912  0.49547041    -0.77600
Eu2070     Eu  0.74785715  0.82236989  0.50770444     2.39800
Eu2071     Eu  0.75789757  0.68015853  0.49142571     2.39600
Eu2072     Eu  0.74758742  0.75712552  0.07186702     2.38400
Eu2073     Eu  0.75439656  0.76063215  0.42862350     2.39900
Eu2074     Eu  0.82354484  0.75614758  0.49941438     2.39800
O2075       O  0.79098223  0.72203252  0.45990036    -0.92000
O2076       O  0.78528831  0.79128360  0.03651169    -0.90900
C2077       C  0.83667263  0.84697117  0.50634502     1.03100
C2078       C  0.84837322  0.66720543  0.49361291     1.01900
C2079       C  0.75090980  0.84869870  0.08679317     1.01200
C2080       C  0.74827678  0.85453288  0.42390579     1.03300
C2081       C  0.75985786  0.67521875  0.39706840     1.02200
C2082       C  0.74865877  0.66750969  0.09399185     1.01000
C2083       C  0.83698643  0.75685441  0.09194679     1.01100
C2084       C  0.84446574  0.75911189  0.41071998     1.03700
H2085       H  0.79759411  0.70612466  0.05095550     0.31100
O2086       O  0.78310077  0.72055920  0.03588270    -1.04200
H2087       H  0.80058680  0.81154775  0.45467708     0.33100
O2088       O  0.78687392  0.79464311  0.46790045    -1.06800
C2089       C  0.74889599  0.60753160  0.12200436    -0.15600
C2090       C  0.75009558  0.64283275  0.12465263    -0.30800
H2091       H  0.74652745  0.59562900  0.09595883     0.13400
H2092       H  0.75202248  0.65458491  0.15080915     0.14000
C2093       C  0.73939734  0.87418054  0.14464896    -0.15600
C2094       C  0.75056800  0.87795406  0.11157872    -0.30800
H2095       H  0.73141733  0.84844125  0.15456219     0.13400
H2096       H  0.75849000  0.90375584  0.10174944     0.14000
C2097       C  0.74565676  0.88229792  0.36613403    -0.15600
C2098       C  0.74759958  0.88586076  0.40100035    -0.30800
H2099       H  0.74392325  0.85595293  0.35476397     0.13400
H2100       H  0.74879255  0.91197031  0.41287235     0.14000
C2101       C  0.76493991  0.61725557  0.36824094    -0.15600
C2102       C  0.76134361  0.65224547  0.36534134    -0.30800
H2103       H  0.76740568  0.60574907  0.39449224     0.13400
H2104       H  0.75869252  0.66422344  0.33934474     0.14000
C2105       C  0.88104059  0.63954878  0.23648064    -0.15600
C2106       C  0.88299243  0.60434312  0.24045868    -0.30800
H2107       H  0.85525390  0.65132851  0.23390305     0.13400
H2108       H  0.90853039  0.59207242  0.24296899     0.14000
C2109       C  0.88613018  0.87426069  0.24808606    -0.15600
C2110       C  0.85154890  0.87039898  0.24630143    -0.30800
H2111       H  0.89728593  0.90056874  0.25057268     0.13400
H2112       H  0.84001030  0.84422423  0.24460313     0.14000
C2113       C  0.61041515  0.62513420  0.24952803    -0.15600
C2114       C  0.64550893  0.62884185  0.25100571    -0.30800
H2115       H  0.59922618  0.59879643  0.24820880     0.13400
H2116       H  0.65672849  0.65520335  0.25161771     0.14000
C2117       C  0.62723119  0.86074181  0.26694376    -0.15600
C2118       C  0.62257482  0.89588625  0.26559292    -0.30800
H2119       H  0.65348815  0.84981505  0.26707811     0.13400
H2120       H  0.59632330  0.90684304  0.26530162     0.14000
C2121       C  0.89712235  0.76203433  0.11755025    -0.15600
C2122       C  0.86247733  0.75713854  0.12144563    -0.30800
H2123       H  0.90804596  0.76584066  0.09128750     0.13400
H2124       H  0.85180848  0.75370765  0.14788416     0.14000
C2125       C  0.63008338  0.75718086  0.14731560    -0.15600
C2126       C  0.62639067  0.75901557  0.11227777    -0.30800
H2127       H  0.65610955  0.75590294  0.15876246     0.13400
H2128       H  0.60028299  0.75999756  0.10097648     0.14000
C2129       C  0.60968992  0.74097493  0.38029555    -0.15600
C2130       C  0.64276086  0.75179160  0.37701623    -0.30800
H2131       H  0.59954586  0.73366374  0.40614321     0.13400
H2132       H  0.65251692  0.75962192  0.35113820     0.14000
C2133       C  0.86956933  0.74997837  0.35100157    -0.15600
C2134       C  0.87353490  0.75729766  0.38540063    -0.30800
H2135       H  0.84358531  0.74662034  0.33991407     0.13400
H2136       H  0.89967157  0.76084862  0.39610742     0.14000
C2137       C  0.89873981  0.87100083  0.00691919    -0.15600
C2138       C  0.86441374  0.87535095  0.00241498    -0.30800
H2139       H  0.90955151  0.84463049  0.01001322     0.13400
H2140       H  0.85122424  0.90282017  0.51260078     0.14000
C2141       C  0.86941113  0.60677817  0.00689117    -0.15600
C2142       C  0.87092947  0.64169027  0.00102105    -0.30800
H2143       H  0.84803443  0.59680553  0.50397380     0.13400
H2144       H  0.89646832  0.65358105  0.99683052     0.14000
C2145       C  0.60800063  0.87749457  0.99353764    -0.15600
C2146       C  0.64241169  0.88210672  0.99388090    -0.30800
H2147       H  0.59707717  0.85098720  0.99434369     0.13400
H2148       H  0.59865606  0.84585485  0.50462181     0.14000
C2149       C  0.62374753  0.64839654  0.00537553    -0.15600
C2150       C  0.62612636  0.61339192  0.00576923    -0.30800
H2151       H  0.59802492  0.66058248  0.00517952     0.13400
H2152       H  0.59984987  0.65351025  0.50844429     0.14000
C2153       C  0.87336654  0.49797144  0.39300617    -0.15600
C2154       C  0.87790148  0.49543037  0.35786735    -0.30800
H2155       H  0.90863187  0.01074296  0.34920820     0.13400
H2156       H  0.90407513  0.49352070  0.34685029     0.14000
C2157       C  0.64890106  0.51142034  0.38038723    -0.15600
C2158       C  0.61434532  0.51505331  0.37613805    -0.30800
H2159       H  0.65986910  0.50857412  0.40675507     0.13400
H2160       H  0.59766216  0.01308697  0.34607634     0.14000
C2161       C  0.62382961  0.50357396  0.14646998    -0.15600
C2162       C  0.62774829  0.49886817  0.11161459    -0.30800
H2163       H  0.59795016  0.50793032  0.15750664     0.13400
H2164       H  0.65559273  0.99632702  0.09316187     0.14000
C2165       C  0.89418852  0.49040524  0.12929818    -0.15600
C2166       C  0.85927334  0.48942530  0.12426094    -0.30800
H2167       H  0.90483581  0.49044601  0.15594189     0.13400
H2168       H  0.84888722  0.98779194  0.09787339     0.14000
C2169       C  0.49025248  0.62906395  0.39401074    -0.15600
C2170       C  0.49008513  0.62472187  0.35874051    -0.30800
H2171       H  0.98746401  0.65367777  0.39908402     0.13400
H2172       H  0.49034485  0.59831704  0.34749397     0.14000
C2173       C  0.50651010  0.85828452  0.38180490    -0.15600
C2174       C  0.50884074  0.89335123  0.37688114    -0.30800
H2175       H  0.99314040  0.84825302  0.40585740     0.13400
H2176       H  0.51086745  0.90409115  0.35027740     0.14000
C2177       C  0.50736735  0.88112932  0.11502851    -0.15600
C2178       C  0.51144294  0.88467015  0.15003593    -0.30800
H2179       H  0.50444935  0.85480318  0.10394289     0.13400
H2180       H  0.00364722  0.91438916  0.16253447     0.14000
C2181       C  0.50290131  0.61376236  0.12645284    -0.15600
C2182       C  0.50240455  0.64902339  0.12249239    -0.30800
H2183       H  0.50309358  0.60240957  0.15287193     0.13400
H2184       H  0.00644064  0.66402600  0.09159283     0.14000
O2185       O  0.50180157  0.54796076  0.60433547    -0.79300
O2186       O  0.50089014  0.56538046  0.90649282    -0.80900
O2187       O  0.55293120  0.60436095  0.50601235    -0.77900
O2188       O  0.93535530  0.59605270  0.50181053    -0.76300
O2189       O  0.89655657  0.55012471  0.50504918    -0.78100
O2190       O  0.59849663  0.56559988  0.49967866    -0.79000
O2191       O  0.50021855  0.60654352  0.95067024    -0.80300
O2192       O  0.49570415  0.59429741  0.56587007    -0.80600
Eu2193     Eu  0.49706961  0.57109186  0.50573835     2.39200
O2194       O  0.95883890  0.53579716  0.97068197    -0.88100
O2195       O  0.53677309  0.53468369  0.53687143    -0.91700
C2196       C  0.49792103  0.58117799  0.59725016     1.03000
C2197       C  0.50011398  0.59748804  0.91790723     1.02800
C2198       C  0.58584134  0.59712958  0.50282740     1.02700
C2199       C  0.90402986  0.58321429  0.50280733     1.00600
H2200       H  0.55294061  0.55628921  0.95227651     0.30300
O2201       O  0.53902567  0.54092576  0.96704283    -1.00500
H2202       H  0.95201384  0.54742475  0.55516553     0.30400
O2203       O  0.96624485  0.53376190  0.53916849    -1.03000
O2204       O  0.49276480  0.94260512  0.89930435    -0.80300
O2205       O  0.50438579  0.94188274  0.59944284    -0.79800
O2206       O  0.60146134  0.50192727  0.93891416    -0.78200
O2207       O  0.89605535  0.49607942  0.95340645    -0.81600
O2208       O  0.90681992  0.49543071  0.56595854    -0.79400
O2209       O  0.60535955  0.50261039  0.55266242    -0.78100
O2210       O  0.56533230  0.90567971  0.49819586    -0.79600
O2211       O  0.95293184  0.89607979  0.49533735    -0.81500
O2212       O  0.60554390  0.95033740  0.49553675    -0.78300
O2213       O  0.90701339  0.93454780  0.49980289    -0.81000
O2214       O  0.55689357  0.50484340  0.89900326    -0.76700
O2215       O  0.56553497  0.49377957  0.59704711    -0.76700
O2216       O  0.95240857  0.49794809  0.60513882    -0.76400
O2217       O  0.93482339  0.50075909  0.90771021    -0.79900
O2218       O  0.49854467  0.89982459  0.94140142    -0.79300
O2219       O  0.50444608  0.90188708  0.55396966    -0.77600
Eu2220     Eu  0.50284958  0.50582457  0.93240571     2.39800
Eu2221     Eu  0.50573009  0.49233186  0.56991691     2.39600
Eu2222     Eu  0.57395077  0.50531385  0.49664150     2.38400
Eu2223     Eu  0.93064657  0.49558914  0.50531587     2.39900
Eu2224     Eu  0.50551041  0.93311452  0.49741763     2.39800
O2225       O  0.97015503  0.95856316  0.53430318    -0.92000
O2226       O  0.53182141  0.96379946  0.96157626    -0.90900
C2227       C  0.49653261  0.91032679  0.90878822     1.03100
C2228       C  0.50374651  0.90987182  0.58706153     1.01900
C2229       C  0.58938288  0.50287862  0.90703295     1.01200
C2230       C  0.90359552  0.49868811  0.92028918     1.02500
C2231       C  0.91946951  0.49695268  0.59763627     1.02200
C2232       C  0.59721196  0.49810608  0.58538750     1.01000
C2233       C  0.59724407  0.91745044  0.49730160     1.01100
C2234       C  0.92000665  0.90318862  0.49772902     1.03700
H2235       H  0.55607524  0.95428863  0.54747221     0.31100
O2236       O  0.54064790  0.96891486  0.53354624    -1.04200
H2237       H  0.95535933  0.94116547  0.95235138     0.33100
O2238       O  0.96914197  0.95775317  0.96579099    -1.06800
O2239       O  0.48961254  0.69942701  0.64474557    -0.79300
O2240       O  0.50679106  0.68173942  0.84400773    -0.80900
O2241       O  0.54564266  0.64078270  0.73904435    -0.77900
O2242       O  0.95335662  0.64741245  0.76024499    -0.76300
O2243       O  0.90787852  0.68678827  0.75788695    -0.78100
O2244       O  0.59236811  0.67866732  0.73880647    -0.79000
O2245       O  0.49568935  0.64301755  0.79896957    -0.80300
O2246       O  0.49022356  0.65343419  0.68417507    -0.80600
Eu2247     Eu  0.49310514  0.67739418  0.74412867     2.39200
O2248       O  0.96960467  0.71640547  0.79386506    -0.88100
O2249       O  0.52779158  0.71332028  0.70695314    -0.91700
C2250       C  0.48980464  0.66615769  0.65253034     1.03000
C2251       C  0.50097409  0.65048107  0.83176833     1.02800
C2252       C  0.57869696  0.64718358  0.73894606     1.02700
C2253       C  0.92055767  0.65509987  0.75854168     1.00600
H2254       H  0.55121361  0.68913990  0.79019343     0.30300
O2255       O  0.53681045  0.70601265  0.77776608    -1.00500
H2256       H  0.95692287  0.69557088  0.70972514     0.30400
O2257       O  0.97048717  0.71231645  0.72318869    -1.03000
O2258       O  0.51394639  0.79471042  0.85680016    -0.80300
O2259       O  0.49492076  0.81829962  0.65619829    -0.79800
O2260       O  0.60827995  0.73997002  0.79324817    -0.78200
O2261       O  0.90492997  0.74872218  0.81768169    -0.81600
O2262       O  0.90097673  0.74256037  0.70109114    -0.79400
O2263       O  0.59320055  0.74129227  0.67888082    -0.78100
O2264       O  0.56604865  0.84390581  0.75261491    -0.79600
O2265       O  0.94133217  0.84845050  0.74745212    -0.81500
O2266       O  0.60383496  0.79854799  0.74044320    -0.78300
O2267       O  0.89932767  0.80576600  0.75179356    -0.81000
O2268       O  0.57087569  0.74035447  0.84048181    -0.76700
O2269       O  0.54718054  0.75140969  0.64150379    -0.76700
O2270       O  0.94156768  0.74252912  0.65619550    -0.76400
O2271       O  0.94874631  0.75642440  0.85808469    -0.79900
O2272       O  0.51012919  0.84153179  0.81873840    -0.79300
O2273       O  0.50305938  0.85561564  0.70320806    -0.77600
Eu2274     Eu  0.50973059  0.74180535  0.82013171     2.39800
Eu2275     Eu  0.49296965  0.75568291  0.67772884     2.39600
Eu2276     Eu  0.57145979  0.74151549  0.74025500     2.38400
Eu2277     Eu  0.93113213  0.74763099  0.75697351     2.39900
Eu2278     Eu  0.50733522  0.81934749  0.75655652     2.39800
O2279       O  0.96492017  0.78055928  0.71635052    -0.92000
O2280       O  0.54413840  0.77741436  0.78324307    -0.90900
C2281       C  0.51199237  0.82799952  0.85026144     1.03100
C2282       C  0.49878965  0.84952629  0.66997467     1.01900
C2283       C  0.60181531  0.74052235  0.82670574     1.01200
C2284       C  0.91657525  0.75241804  0.84976408     1.03300
C2285       C  0.90949116  0.74175401  0.66824762     1.02200
C2286       C  0.58000339  0.74570664  0.64770154     1.01000
C2287       C  0.59672035  0.83156553  0.74592095     1.01100
C2288       C  0.90939458  0.83844632  0.74879108     1.03700
H2289       H  0.54936443  0.79904677  0.69779201     0.31100
O2290       O  0.53528053  0.78418819  0.71291811    -1.04200
H2291       H  0.94874251  0.80372043  0.80278931     0.33100
O2292       O  0.96381878  0.78854028  0.78904747    -1.06800
O2293       O  0.84377637  0.99063246  0.68652646    -0.79300
O2294       O  0.64520922  0.01367108  0.70065042    -0.80900
O2295       O  0.74106536  0.95260655  0.64547035    -0.77900
O2296       O  0.74493729  0.56099939  0.65217482    -0.76300
O2297       O  0.74555090  0.60230918  0.69661944    -0.78100
O2298       O  0.73859501  0.90581736  0.68367536    -0.79000
O2299       O  0.68518156  0.01388756  0.65550243    -0.80300
O2300       O  0.79976617  0.00353132  0.64723645    -0.80600
Eu2301     Eu  0.74518539  0.00819616  0.68052094     2.39200
O2302       O  0.71423908  0.53485689  0.72055890    -0.88100
O2303       O  0.77882439  0.96527905  0.71070159    -0.91700
C2304       C  0.83181683  0.99611695  0.65464472     1.03000
C2305       C  0.65349851  0.01486927  0.66777803     1.02800
C2306       C  0.73966076  0.91912286  0.65245581     1.02700
C2307       C  0.74486992  0.59330032  0.66370967     1.00600
H2308       H  0.69110945  0.95979083  0.69790104     0.30300
O2309       O  0.70741597  0.97166961  0.71332218    -1.00500
H2310       H  0.79604007  0.55575003  0.69815304     0.30400
O2311       O  0.78327037  0.54017653  0.71367672    -1.03000
O2312       O  0.65024350  0.00330974  0.81383328    -0.80300
O2313       O  0.84609450  0.98622823  0.81192439    -0.79800
O2314       O  0.68184747  0.90488605  0.74440359    -0.78200
O2315       O  0.69235246  0.59977211  0.75607960    -0.81600
O2316       O  0.80428988  0.60696845  0.75300787    -0.79400
O2317       O  0.79374035  0.89199595  0.74092320    -0.78100
O2318       O  0.74205825  0.92995325  0.84052409    -0.79600
O2319       O  0.75974581  0.55512843  0.85623540    -0.81500
O2320       O  0.73743191  0.89147331  0.79438003    -0.78300
O2321       O  0.75232856  0.59939302  0.81582367    -0.81000
O2322       O  0.64373409  0.95061313  0.75307294    -0.76700
O2323       O  0.84126526  0.92840166  0.74563116    -0.76700
O2324       O  0.84934991  0.56772976  0.74718688    -0.76400
O2325       O  0.65097708  0.55598528  0.75435911    -0.79900
O2326       O  0.69415261  0.99245319  0.85327310    -0.79300
O2327       O  0.80210231  0.98232447  0.85292916    -0.77600
Eu2328     Eu  0.67738382  0.00663836  0.75519201     2.39800
Eu2329     Eu  0.82052949  0.99045316  0.74930723     2.39600
Eu2330     Eu  0.74099091  0.92895256  0.74306591     2.38400
Eu2331     Eu  0.74975709  0.57325935  0.75448967     2.39900
Eu2332     Eu  0.74890900  0.99070378  0.82108330     2.39800
O2333       O  0.79044164  0.54056897  0.78641504    -0.92000
O2334       O  0.70913008  0.96251647  0.78419831    -0.90900
C2335       C  0.66194693  0.99744747  0.84529689     1.03100
C2336       C  0.83440252  0.98334620  0.84441162     1.01900
C2337       C  0.65090527  0.91746362  0.74893429     1.01200
C2338       C  0.66058415  0.58900447  0.75446309     1.03300
C2339       C  0.83698679  0.59930030  0.75054786     1.02200
C2340       C  0.82690927  0.89744850  0.74303292     1.01000
C2341       C  0.73875860  0.89875907  0.82739244     1.01100
C2342       C  0.75630998  0.58757398  0.84794446     1.03700
H2343       H  0.79381221  0.93779864  0.79506140     0.31100
O2344       O  0.78114428  0.95546230  0.78179026    -1.04200
H2345       H  0.70369151  0.54944095  0.80729372     0.33100
O2346       O  0.71784174  0.53546462  0.79143373    -1.06800
O2347       O  0.68638811  0.65886722  0.00327380    -0.79300
O2348       O  0.69881965  0.86063172  0.99702279    -0.80900
O2349       O  0.65422076  0.74283359  0.55890822    -0.77900
O2350       O  0.64782825  0.75652870  0.94338464    -0.76300
O2351       O  0.68897462  0.75252382  0.89985525    -0.78100
O2352       O  0.69759947  0.74163717  0.60084194    -0.79000
O2353       O  0.65438368  0.82032160  0.99679483    -0.80300
O2354       O  0.64706233  0.70470948  0.00304191    -0.80600
Eu2355     Eu  0.67857407  0.75963647  0.99966297     2.39200
O2356       O  0.71284641  0.79486056  0.96321932    -0.88100
O2357       O  0.72192296  0.71060080  0.53164543    -0.91700
C2358       C  0.65474433  0.67178139  0.00394325     1.03000
C2359       C  0.66649796  0.85226933  0.99597213     1.02800
C2360       C  0.66509028  0.74189044  0.59139351     1.02700
C2361       C  0.65699119  0.75324116  0.91083921     1.00600
H2362       H  0.70090628  0.79268023  0.55527727     0.30300
O2363       O  0.71627709  0.78004553  0.53948763    -1.00500
H2364       H  0.69733723  0.70586723  0.95113939     0.30400
O2365       O  0.71236808  0.72036403  0.96565480    -1.03000
O2366       O  0.80723570  0.85575665  0.00020030    -0.80300
O2367       O  0.80828898  0.65487783  0.00133137    -0.79800
O2368       O  0.75254995  0.80055861  0.60583734    -0.78200
O2369       O  0.74363643  0.81445407  0.90111028    -0.81600
O2370       O  0.74819909  0.70216977  0.89815579    -0.79400
O2371       O  0.75337106  0.68237013  0.59352544    -0.78100
O2372       O  0.85613452  0.75479437  0.55374947    -0.79600
O2373       O  0.84541290  0.75304124  0.93897215    -0.81500
O2374       O  0.81688075  0.74463123  0.59831164    -0.78300
O2375       O  0.80126187  0.75439486  0.89803186    -0.81000
O2376       O  0.74563730  0.84639473  0.56692658    -0.76700
O2377       O  0.75565793  0.64467411  0.54609895    -0.76700
O2378       O  0.74965258  0.65748930  0.93916481    -0.76400
O2379       O  0.75027922  0.85655288  0.94380983    -0.79900
O2380       O  0.84998564  0.81369667  0.00146619    -0.79300
O2381       O  0.84937369  0.69903736  0.00032136    -0.77600
Eu2382     Eu  0.75132274  0.82649237  0.99950599     2.39800
Eu2383     Eu  0.74794503  0.68292723  0.00092177     2.39600
Eu2384     Eu  0.75563289  0.74425154  0.57214408     2.38400
Eu2385     Eu  0.74655671  0.75668487  0.92949052     2.39900
Eu2386     Eu  0.82004232  0.75575641  0.99993905     2.39800
O2387       O  0.78220052  0.72066561  0.96553408    -0.92000
O2388       O  0.78707426  0.78620752  0.53943048    -0.90900
C2389       C  0.83928198  0.84611249  0.00137846     1.03100
C2390       C  0.84049089  0.66630795  0.00093347     1.01900
C2391       C  0.74827100  0.83368329  0.59833859     1.01200
C2392       C  0.74603664  0.84665715  0.91177413     1.03300
C2393       C  0.74946486  0.66959479  0.90682812     1.02200
C2394       C  0.75343829  0.65108147  0.57958978     1.01000
C2395       C  0.84855020  0.74943851  0.58630346     1.01100
C2396       C  0.83358851  0.75281959  0.90672432     1.03700
H2397       H  0.80695542  0.69881068  0.54486075     0.31100
O2398       O  0.79147246  0.71401943  0.53168476    -1.04200
H2399       H  0.80008974  0.80596003  0.94767996     0.33100
O2400       O  0.78566998  0.79141869  0.96278916    -1.06800
C2401       C  0.74504005  0.62319827  0.63834606    -0.15600
C2402       C  0.75078387  0.61989128  0.60339659    -0.30800
H2403       H  0.74210228  0.64947887  0.64951174     0.13400
H2404       H  0.75390674  0.59375776  0.59196233     0.14000
C2405       C  0.74020892  0.89391151  0.62271730    -0.15600
C2406       C  0.74604546  0.85900393  0.62787514    -0.30800
H2407       H  0.73719448  0.90439978  0.59613497     0.13400
H2408       H  0.74965806  0.84869451  0.65445888     0.14000
C2409       C  0.73764928  0.86924541  0.85198062    -0.15600
C2410       C  0.74401452  0.87493593  0.88617980    -0.30800
H2411       H  0.73336518  0.84273283  0.84184711     0.13400
H2412       H  0.74848169  0.90152157  0.89608971     0.14000
C2413       C  0.75663911  0.61145663  0.87868002    -0.15600
C2414       C  0.75031445  0.64577791  0.87607508    -0.30800
H2415       H  0.76133774  0.59999245  0.90463886     0.13400
H2416       H  0.74590412  0.65727215  0.85007708     0.14000
C2417       C  0.89613634  0.62495657  0.75651977    -0.15600
C2418       C  0.86155894  0.62928690  0.75215698    -0.30800
H2419       H  0.90699887  0.59848917  0.75829241     0.13400
H2420       H  0.85064014  0.65574920  0.75084803     0.14000
C2421       C  0.88428813  0.86818274  0.74735385    -0.15600
C2422       C  0.84960990  0.86550060  0.74339697    -0.30800
H2423       H  0.89570985  0.89442220  0.74924823     0.13400
H2424       H  0.83762675  0.83959313  0.74109453     0.14000
C2425       C  0.60205471  0.61573087  0.74044313    -0.15600
C2426       C  0.63485138  0.61825700  0.75264319    -0.30800
H2427       H  0.59166069  0.59005970  0.73307997     0.13400
H2428       H  0.64449866  0.64420898  0.76015183     0.14000
C2429       C  0.62598447  0.85707267  0.74438105    -0.15600
C2430       C  0.62148843  0.89209542  0.74972234    -0.30800
H2431       H  0.65188457  0.84669989  0.73885767     0.13400
H2432       H  0.59556606  0.90251459  0.75507882     0.14000
C2433       C  0.87875592  0.73999259  0.64411835    -0.15600
C2434       C  0.87967840  0.74909072  0.61000332    -0.30800
H2435       H  0.85369512  0.73300705  0.65573617     0.13400
H2436       H  0.90466008  0.75661476  0.59852673     0.14000
C2437       C  0.60424837  0.74444144  0.61675225    -0.15600
C2438       C  0.63923406  0.74169148  0.62081799    -0.30800
H2439       H  0.59323862  0.74655673  0.59035085     0.13400
H2440       H  0.64992559  0.74016630  0.64740382     0.14000
C2441       C  0.63218442  0.74245121  0.85086587    -0.15600
C2442       C  0.62800659  0.74991728  0.88535486    -0.30800
H2443       H  0.65825341  0.73911027  0.83996765     0.13400
H2444       H  0.60179994  0.75353959  0.89585926     0.14000
C2445       C  0.89239226  0.75251190  0.88013115    -0.15600
C2446       C  0.85782399  0.75081418  0.87648296    -0.30800
H2447       H  0.90358516  0.75497893  0.90645358     0.13400
H2448       H  0.84660916  0.74887709  0.85013283     0.14000
C2449       C  0.89560310  0.87295771  0.49831795    -0.15600
C2450       C  0.86152978  0.87679281  0.50646740    -0.30800
H2451       H  0.90603485  0.84693658  0.49236252     0.13400
H2452       H  0.85386596  0.90183582  0.99931224     0.14000
C2453       C  0.87410963  0.60774111  0.50073961    -0.15600
C2454       C  0.87813768  0.64246416  0.49464846    -0.30800
H2455       H  0.84410173  0.59450527  0.01122828     0.13400
H2456       H  0.90422187  0.65346254  0.49179996     0.14000
C2457       C  0.62743787  0.89265844  0.49873376    -0.15600
C2458       C  0.62453595  0.85754832  0.50284839    -0.30800
H2459       H  0.65339264  0.90413116  0.49656961     0.13400
H2460       H  0.65337694  0.90860819  0.99345419     0.14000
C2461       C  0.64448425  0.62442406  0.49356937    -0.15600
C2462       C  0.61038399  0.62760061  0.50221564    -0.30800
H2463       H  0.65496876  0.59850724  0.48728772     0.13400
H2464       H  0.65195720  0.60140531  0.00562247     0.14000
C2465       C  0.87412854  0.49974301  0.89524291    -0.15600
C2466       C  0.87882877  0.50514673  0.86036920    -0.30800
H2467       H  0.90384064  0.99322956  0.84864139     0.13400
H2468       H  0.90503262  0.50841816  0.84976512     0.14000
C2469       C  0.64838840  0.49933658  0.88089504    -0.15600
C2470       C  0.61369236  0.50144878  0.87694257    -0.30800
H2471       H  0.65974831  0.49896544  0.90724509     0.13400
H2472       H  0.59156673  0.99998471  0.84443147     0.14000
C2473       C  0.62433438  0.49635326  0.64557644    -0.15600
C2474       C  0.62733029  0.49807145  0.61022509    -0.30800
H2475       H  0.59847843  0.49457817  0.65734514     0.13400
H2476       H  0.65319024  0.00690904  0.59737721     0.14000
C2477       C  0.89477298  0.49845637  0.62784605    -0.15600
C2478       C  0.85986871  0.50085089  0.62358508    -0.30800
H2479       H  0.90576530  0.49835379  0.65434493     0.13400
H2480       H  0.84515388  0.00207004  0.59780788     0.14000
C2481       C  0.49973187  0.62643551  0.89205591    -0.15600
C2482       C  0.50026817  0.62089593  0.85699100    -0.30800
H2483       H  0.98158775  0.60543013  0.85565207     0.13400
H2484       H  0.49982962  0.59416974  0.84652730     0.14000
C2485       C  0.51049870  0.85170173  0.88157356    -0.15600
C2486       C  0.49883542  0.88501050  0.87898904    -0.30800
H2487       H  0.99352754  0.90433423  0.84840088     0.13400
H2488       H  0.49172542  0.89510458  0.85303582     0.14000
C2489       C  0.50202419  0.87900917  0.61135341    -0.15600
C2490       C  0.49900529  0.88124298  0.64665531    -0.30800
H2491       H  0.50338388  0.85299677  0.59928535     0.13400
H2492       H  0.98546342  0.89060345  0.64461046     0.14000
C2493       C  0.49574401  0.60597364  0.62736826    -0.15600
C2494       C  0.49035881  0.64092998  0.62275926    -0.30800
H2495       H  0.49891756  0.59525819  0.65384814     0.13400
H2496       H  0.01064347  0.59398580  0.66253427     0.14000
loop_ 
_geom_bond_atom_site_label_1 
_geom_bond_atom_site_label_2 
_geom_bond_distance 
_geom_bond_site_symmetry_2 
_ccdc_geom_bond_type 
O1           C12   1.298       .  A
O1          Eu37   2.484       .  S
O2           C13   1.294       .  A
O2          Eu36   2.465   1_655  S
O3           C14   1.304       .  A
O3           Eu9   2.531       .  S
O4           C15   1.285       .  A
O4        Eu1257   2.429   1_554  S
O5           C15   1.304       .  A
O5          Eu39   2.527       .  S
O6           C14   1.275       .  A
O6          Eu38   2.374       .  S
O7           C13   1.288       .  A
O7         Eu321   2.447       .  S
O8           C12   1.286       .  A
O8           Eu9   2.428   1_554  S
Eu9        O1252   2.499   1_455  S
Eu9         O319   2.476   1_455  S
Eu9          O11   2.356   1_556  S
Eu9        O1267   2.372   1_456  S
Eu9        O1570   2.354   1_455  S
Eu9         O329   2.341       .  S
O10       Eu1569   2.350       .  S
O10        Eu351   2.351       .  S
O10       Eu1284   2.337       .  S
O11         Eu37   2.350       .  S
O11         Eu38   2.351   1_554  S
C12         C309   1.473       .  S
C13         C297   1.478       .  S
C14         C278   1.468       .  S
C15         C269   1.491       .  S
H16          O17   0.965       .  S
O17         Eu36   2.336       .  S
O17        Eu321   2.360   1_455  S
O17        Eu350   2.340       .  S
H18          O19   0.966       .  S
O19         Eu39   2.356       .  S
O19       Eu1257   2.368   1_554  S
O19       Eu1285   2.371       .  S
O20          C43   1.285   1_655  A
O20        Eu660   2.428       .  S
O21          C44   1.282       .  A
O21        Eu661   2.414       .  S
O22          C45   1.281       .  A
O22        Eu350   2.408       .  S
O23          C46   1.307       .  A
O23        Eu351   2.548       .  S
O24          C47   1.297   1_545  A
O24         Eu39   2.481       .  S
O25          C48   1.278       .  A
O25         Eu38   2.397   1_554  S
O26          C49   1.299       .  A
O26         Eu40   2.485   1_556  S
O27          C50   1.288       .  A
O27       Eu1288   2.441   1_554  S
O28          C49   1.280       .  A
O28        Eu662   2.405       .  S
O29          C50   1.302       .  A
O29        Eu663   2.515       .  S
O30          C45   1.298       .  A
O30         Eu36   2.492       .  S
O31          C48   1.299       .  A
O31         Eu37   2.490       .  S
O32          C47   1.290   1_545  A
O32       Eu1285   2.455       .  S
O33          C46   1.280       .  A
O33       Eu1284   2.401       .  S
O34          C43   1.300       .  A
O34        Eu352   2.508       .  S
O35          C44   1.304       .  A
O35         Eu40   2.526       .  S
Eu36        O644   2.478   1_545  S
Eu36       O1281   2.402   1_455  S
Eu36       O1258   2.367   1_455  S
Eu36       O1926   2.364   1_445  S
Eu36        O666   2.335   1_545  S
Eu37        O645   2.497   1_545  S
Eu37       O1280   2.467   1_455  S
Eu37       O1267   2.363   1_455  S
Eu37       O1913   2.358   1_445  S
Eu37        O676   2.352   1_545  S
Eu38        O334   2.420   1_545  S
Eu38        O652   2.425   1_545  S
Eu38        O329   2.340       .  S
Eu38        O676   2.336   1_546  S
Eu38        O978   2.316   1_545  S
Eu39        O335   2.450   1_554  S
Eu39        O653   2.500   1_545  S
Eu39        O322   2.361   1_554  S
Eu39        O665   2.353   1_545  S
Eu39        O990   2.380   1_544  S
Eu40       O1275   2.470   1_455  S
Eu40        O346   2.507   1_554  S
Eu40         O52   2.350       .  S
Eu40       O1289   2.354   1_455  S
Eu40       O1614   2.370   1_454  S
Eu40        O354   2.357   1_554  S
O41       Eu1909   2.366       .  S
O41        Eu663   2.357       .  S
O41       Eu1288   2.358   1_554  S
O42        Eu660   2.357   1_455  S
O42        Eu974   2.346       .  S
O42        Eu352   2.341       .  S
C43         C302   1.485       .  S
C44         C305   1.485       .  S
C45         C286   1.473       .  S
C46         C281   1.488       .  S
C47         C293   1.485       .  S
C48         C290   1.465       .  S
C49         C273   1.468       .  S
C50         C265   1.491       .  S
H51          O52   0.965       .  S
O52        Eu661   2.346       .  S
O52        Eu662   2.358   1_554  S
H53          O54   0.967       .  S
O54       Eu1908   2.362       .  S
O54        Eu975   2.368       .  S
O54       Eu1600   2.349       .  S
O55          C66   1.294       .  A
O55         Eu91   2.472       .  S
O56          C67   1.295       .  A
O56         Eu90   2.487       .  S
O57          C68   1.289       .  A
O57         Eu63   2.449   1_455  S
O58          C69   1.300       .  A
O58       Eu1311   2.507       .  S
O59          C69   1.287       .  A
O59         Eu93   2.437       .  S
O60          C68   1.294       .  A
O60         Eu92   2.468       .  S
O61          C67   1.284       .  A
O61         Eu63   2.424       .  S
O62          C66   1.284   1_655  A
O62         Eu63   2.423       .  S
Eu63       O1306   2.447       .  S
Eu63         O65   2.342   1_655  S
Eu63         O71   2.349   1_655  S
Eu63       O1321   2.347       .  S
Eu63       O1312   2.344       .  S
O64         Eu93   2.358       .  S
O64       Eu1311   2.341       .  S
O64       Eu1338   2.340       .  S
O65         Eu91   2.337       .  S
O65         Eu92   2.352       .  S
C66         C310   1.470       .  S
C67         C298   1.473       .  S
C68         C241   1.479       .  S
C69         C233   1.488       .  S
H70          O71   0.966       .  S
O71         Eu92   2.349       .  S
O71         Eu90   2.347   1_455  S
H72          O73   0.966       .  S
O73         Eu93   2.378       .  S
O73       Eu1311   2.329       .  S
O73       Eu1339   2.344       .  S
O74          C97   1.286   1_655  A
O74         Eu90   2.433       .  S
O75          C98   1.282       .  A
O75         Eu91   2.410       .  S
O76          C99   1.295       .  A
O76         Eu92   2.471       .  S
O77         C100   1.305       .  A
O77         Eu93   2.536       .  S
O78         C101   1.301       .  A
O78         Eu93   2.508       .  S
O79         C102   1.288       .  A
O79         Eu92   2.444       .  S
O80         C103   1.297       .  A
O80         Eu94   2.484       .  S
O81         C104   1.294       .  A
O81       Eu1342   2.478       .  S
O82         C103   1.291       .  A
O82         Eu92   2.462       .  S
O83         C104   1.294       .  A
O83         Eu93   2.473       .  S
O84          C99   1.284       .  A
O84         Eu90   2.427   1_455  S
O85         C102   1.295       .  A
O85         Eu91   2.475       .  S
O86         C101   1.291       .  A
O86       Eu1339   2.458       .  S
O87         C100   1.277       .  A
O87       Eu1338   2.380       .  S
O88          C97   1.302       .  A
O88         Eu94   2.511       .  S
O89          C98   1.305       .  A
O89         Eu94   2.533       .  S
Eu90       O1335   2.445       .  S
Eu90         O96   2.356   1_655  S
Eu90       O1312   2.332       .  S
Eu90       O1356   2.364       .  S
Eu91       O1334   2.479   1_455  S
Eu91        O106   2.366       .  S
Eu91       O1321   2.343   1_455  S
Eu91       O1343   2.361   1_455  S
Eu92        O106   2.360       .  S
Eu92         O96   2.339       .  S
Eu93         O95   2.362       .  S
Eu93        O108   2.347       .  S
Eu94       O1329   2.470   1_455  S
Eu94        O106   2.355       .  S
Eu94         O96   2.359       .  S
Eu94       O1343   2.356   1_455  S
Eu94       O1356   2.374   1_455  S
O95       Eu1339   2.378       .  S
O95       Eu1342   2.353       .  S
C97         C301   1.483       .  S
C98         C306   1.485       .  S
C99         C257   1.472       .  S
C100        C261   1.475       .  S
C101        C249   1.491       .  S
C102        C253   1.478       .  S
C103        C245   1.489       .  S
C104        C237   1.489       .  S
H105        O106   0.965       .  S
H107        O108   0.966       .  S
O108      Eu1338   2.370       .  S
O108      Eu1342   2.361       .  S
O109        C120   1.303       .  A
O109       Eu145   2.529       .  S
O110        C121   1.283       .  A
O110       Eu144   2.421       .  S
O111        C122   1.297       .  A
O111       Eu117   2.481       .  S
O112        C123   1.284       .  A
O112       Eu741   2.426   1_545  S
O113        C123   1.296       .  A
O113       Eu147   2.481       .  S
O114        C122   1.277       .  A
O114       Eu146   2.381       .  S
O115        C121   1.297       .  A
O115       Eu117   2.492       .  S
O116        C120   1.290       .  A
O116       Eu117   2.457       .  S
Eu117       O736   2.444       .  S
Eu117       O119   2.350       .  S
Eu117       O125   2.342       .  S
Eu117       O751   2.371       .  S
Eu117       O742   2.348       .  S
O118       Eu147   2.353       .  S
O118       Eu741   2.338   1_545  S
O118       Eu768   2.358       .  S
O119       Eu145   2.363       .  S
O119       Eu146   2.361       .  S
C120        C918   1.501       .  S
C121        C913   1.475       .  S
C122        C221   1.456       .  S
C123        C217   1.475       .  S
H124        O125   0.966       .  S
O125       Eu146   2.352       .  S
O125       Eu144   2.345       .  S
H126        O127   0.965       .  S
O127       Eu147   2.333       .  S
O127       Eu741   2.376   1_545  S
O127       Eu769   2.377   1_545  S
O128        C151   1.290       .  A
O128       Eu144   2.451       .  S
O129        C152   1.307       .  A
O129       Eu145   2.545       .  S
O130        C153   1.298       .  A
O130       Eu146   2.499       .  S
O131        C154   1.290       .  A
O131       Eu147   2.453       .  S
O132        C155   1.300       .  A
O132       Eu147   2.508       .  S
O133        C156   1.293       .  A
O133       Eu146   2.473       .  S
O134        C157   1.285       .  A
O134       Eu148   2.437       .  S
O135        C158   1.295       .  A
O135       Eu772   2.471       .  S
O136        C157   1.285       .  A
O136       Eu146   2.416       .  S
O137        C158   1.286       .  A
O137       Eu147   2.431       .  S
O138        C153   1.288       .  A
O138       Eu144   2.445       .  S
O139        C156   1.295       .  A
O139       Eu145   2.475       .  S
O140        C155   1.286       .  A
O140       Eu769   2.433   1_545  S
O141        C154   1.295       .  A
O141       Eu768   2.480       .  S
O142        C151   1.282       .  A
O142       Eu148   2.421       .  S
O143        C152   1.275       .  A
O143       Eu148   2.378       .  S
Eu144       O765   2.407       .  S
Eu144       O150   2.334       .  S
Eu144       O742   2.351       .  S
Eu144       O786   2.353       .  S
Eu145       O764   2.451       .  S
Eu145       O160   2.358       .  S
Eu145       O751   2.373       .  S
Eu145       O773   2.362       .  S
Eu146       O160   2.344       .  S
Eu146       O150   2.342       .  S
Eu147       O149   2.352       .  S
Eu147       O162   2.379       .  S
Eu148       O759   2.408       .  S
Eu148       O160   2.344       .  S
Eu148       O150   2.329       .  S
Eu148       O773   2.350       .  S
Eu148       O786   2.340       .  S
O149       Eu769   2.353   1_545  S
O149       Eu772   2.375       .  S
C151        C909   1.463       .  S
C152        C906   1.479       .  S
C153        C246   1.486       .  S
C154        C242   1.477       .  S
C155        C234   1.486       .  S
C156        C238   1.487       .  S
C157        C225   1.459       .  S
C158        C229   1.468       .  S
H159        O160   0.965       .  S
H161        O162   0.965       .  S
O162       Eu768   2.345       .  S
O162       Eu772   2.335       .  S
O163        C174   1.283       .  A
O163       Eu199   2.424       .  S
O164        C175   1.297       .  A
O164       Eu198   2.496       .  S
O165        C176   1.286       .  A
O165       Eu483   2.434   1_554  S
O166        C177   1.296       .  A
O166       Eu171   2.482       .  S
O167        C177   1.282       .  A
O167       Eu201   2.410       .  S
O168        C176   1.295       .  A
O168       Eu200   2.477       .  S
O169        C175   1.286       .  A
O169       Eu171   2.434       .  S
O170        C174   1.292       .  A
O170       Eu171   2.460       .  S
Eu171       O477   2.434       .  S
Eu171       O181   2.339       .  S
Eu171       O172   2.345       .  S
Eu171       O485   2.354       .  S
Eu171       O491   2.366       .  S
O172       Eu201   2.347       .  S
O172       Eu198   2.338       .  S
O173       Eu200   2.358       .  S
O173       Eu483   2.340   1_554  S
O173       Eu511   2.335       .  S
C174        C589   1.467       .  S
C175        C586   1.482       .  S
C176        C254   1.474       .  S
C177        C258   1.466       .  S
H178        O179   0.966       .  S
O179       Eu200   2.336       .  S
O179       Eu483   2.349   1_554  S
O179       Eu510   2.331       .  S
H180        O181   0.964       .  S
O181       Eu199   2.325       .  S
O181       Eu201   2.342       .  S
O182        C205   1.293       .  A
O182       Eu198   2.471       .  S
O183        C206   1.276       .  A
O183       Eu199   2.384       .  S
O184        C207   1.295       .  A
O184       Eu200   2.477       .  S
O185        C208   1.286       .  A
O185       Eu201   2.436       .  S
O186        C209   1.291       .  A
O186       Eu201   2.456       .  S
O187        C210   1.283       .  A
O187       Eu200   2.413       .  S
O188        C211   1.299       .  A
O188       Eu514   2.495       .  S
O189        C212   1.304       .  A
O189       Eu202   2.523       .  S
O190        C211   1.291       .  A
O190       Eu200   2.461       .  S
O191        C212   1.280       .  A
O191       Eu201   2.404       .  S
O192        C207   1.275       .  A
O192       Eu510   2.373       .  S
O193        C210   1.299       .  A
O193       Eu511   2.499       .  S
O194        C209   1.283       .  A
O194       Eu199   2.427       .  S
O195        C208   1.286       .  A
O195       Eu198   2.427       .  S
O196        C205   1.298       .  A
O196       Eu202   2.496       .  S
O197        C206   1.304       .  A
O197       Eu202   2.526       .  S
Eu198       O504   2.403       .  S
Eu198       O216   2.349       .  S
Eu198       O491   2.349       .  S
Eu198       O516   2.362       .  S
Eu199       O505   2.398       .  S
Eu199       O203   2.343       .  S
Eu199       O485   2.333       .  S
Eu199       O526   2.351       .  S
Eu200       O214   2.363       .  S
Eu200       O204   2.341       .  S
Eu201       O203   2.338       .  S
Eu201       O216   2.350       .  S
Eu202       O500   2.471       .  S
Eu202       O203   2.348       .  S
Eu202       O216   2.357       .  S
Eu202       O526   2.373       .  S
Eu202       O516   2.377       .  S
O204       Eu510   2.355       .  S
O204       Eu514   2.378       .  S
C205        C578   1.494       .  S
C206        C582   1.472       .  S
C207        C222   1.453       .  S
C208        C226   1.459       .  S
C209        C230   1.469       .  S
C210        C218   1.472       .  S
C211        C250   1.490       .  S
C212        C262   1.479       .  S
H213        O214   0.965       .  S
O214       Eu511   2.371       .  S
O214       Eu514   2.365       .  S
H215        O216   0.966       .  S
C217        C218   1.336       .  D
C217        H219   1.087       .  S
C218        H220   1.087       .  S
C221        C222   1.326       .  D
C221        H223   1.088       .  S
C222        H224   1.088       .  S
C225        C226   1.341       .  D
C225        H227   1.087       .  S
C226        H228   1.087       .  S
C229        C230   1.338       .  D
C229        H231   1.087       .  S
C230        H232   1.087       .  S
C233        C234   1.341       .  D
C233        H235   1.087       .  S
C234        H236   1.087       .  S
C237        C238   1.349       .  D
C237        H239   1.086       .  S
C238        H240   1.087       .  S
C241        C242   1.344       .  D
C241        H243   1.087       .  S
C242        H244   1.087       .  S
C245        C246   1.345       .  D
C245        H247   1.087       .  S
C246        H248   1.087       .  S
C249        C250   1.345       .  D
C249        H251   1.087       .  S
C250        H252   1.087       .  S
C253        C254   1.341       .  D
C253        H255   1.087       .  S
C254        H256   1.087       .  S
C257        C258   1.336       .  D
C257        H259   1.087       .  S
C258        H260   1.087       .  S
C261        C262   1.329       .  D
C261        H263   1.088       .  S
C262        H264   1.087       .  S
C265        C266   1.342       .  D
C265        H267   1.087   1_554  S
C266        C517   1.489       .  S
C266        H580   1.087       .  S
H268        C578   1.087       .  S
C269        C270   1.339       .  D
C269        H583   1.087       .  S
C270        C518   1.491       .  S
C270        H272   1.087       .  S
H271        C581   1.088       .  S
C273        C274   1.328       .  D
C273        H275   1.087       .  S
C274        C487   1.460       .  S
C274        H588   1.088   1_556  S
H276        C586   1.087       .  S
C277        C486   1.470       .  S
C277        C278   1.326       .  D
C277        H279   1.087   1_556  S
C278        H592   1.088       .  S
H280        C590   1.087       .  S
C281        C282   1.333       .  D
C281        H907   1.088       .  S
C282        C776   1.490       .  S
C282        H284   1.087       .  S
H283        C905   1.088       .  S
C285        C775   1.473       .  S
C285        C286   1.334       .  D
C285        H287   1.087       .  S
C286        H912   1.087       .  S
H288        C910   1.087       .  S
C289        C745   1.460   1_545  S
C289        C290   1.327       .  D
C289        H291   1.088   1_545  S
C290        H916   1.087       .  S
H292        C914   1.087       .  S
C293        C294   1.342       .  D
C293        H295   1.086   1_565  S
C294        C744   1.480       .  S
C294        H920   1.087       .  S
H296        C918   1.087       .  S
C297        C298   1.340       .  D
C297       H1547   1.087       .  S
C298        H300   1.087       .  S
H299       C1545   1.088       .  S
C301        C302   1.338       .  D
C301       H1551   1.087       .  S
C302        H304   1.087       .  S
H303       C1549   1.087       .  S
C305        C306   1.334       .  D
C305        H307   1.087       .  S
C306       H1556   1.087       .  S
H308       C1554   1.087       .  S
C309        C310   1.337       .  D
C309        H311   1.087       .  S
C310       H1560   1.087   1_455  S
H312       C1558   1.088       .  S
O313        C324   1.292       .  A
O313       Eu349   2.469   1_545  S
O314        C325   1.279       .  A
O314       Eu348   2.401   1_645  S
O315        C326   1.284       .  A
O315       Eu321   2.426   1_455  S
O316        C327   1.276       .  A
O316      Eu1569   2.384       .  S
O317        C327   1.305       .  A
O317       Eu351   2.533       .  S
O318        C326   1.294       .  A
O318       Eu350   2.471       .  S
O319        C325   1.297       .  A
O320        C324   1.290   1_655  A
O320       Eu321   2.451       .  S
Eu321      O1564   2.456       .  S
Eu321      O1579   2.343       .  S
Eu321       O323   2.352   1_655  S
Eu321      O1258   2.340       .  S
O322      Eu1257   2.332       .  S
O322      Eu1596   2.348   1_545  S
O323       Eu349   2.347   1_545  S
O323       Eu350   2.337       .  S
C324        C621   1.479       .  S
C325        C609   1.466       .  S
C326        C590   1.470       .  S
C327        C581   1.474       .  S
H328        O329   0.966       .  S
O329       Eu348   2.329   1_545  S
H330        O331   0.965       .  S
O331      Eu1569   2.339       .  S
O331      Eu1597   2.358       .  S
O331       Eu351   2.375       .  S
O332        C355   1.280   1_655  A
O332       Eu972   2.403       .  S
O333        C356   1.300       .  A
O333       Eu973   2.503       .  S
O334        C357   1.284       .  A
O335        C358   1.290       .  A
O336        C359   1.299       .  A
O336       Eu351   2.495   1_565  S
O337        C360   1.279   1_545  A
O337       Eu350   2.400       .  S
O338        C361   1.295       .  A
O338       Eu352   2.475       .  S
O339        C362   1.295       .  A
O339      Eu1600   2.484       .  S
O340        C361   1.289       .  A
O340       Eu974   2.457       .  S
O341        C362   1.297       .  A
O341       Eu975   2.484       .  S
O342        C357   1.283       .  A
O342       Eu348   2.427       .  S
O343        C360   1.301       .  A
O343       Eu349   2.513       .  S
O344        C359   1.292       .  A
O344      Eu1597   2.457   1_565  S
O345        C358   1.287   1_565  A
O345      Eu1596   2.425       .  S
O346        C355   1.301       .  A
O347        C356   1.291       .  A
O347       Eu352   2.457       .  S
Eu348       O956   2.413       .  S
Eu348      O1593   2.386   1_455  S
Eu348      O1570   2.347   1_465  S
Eu348      O2238   2.340   1_455  S
Eu348       O978   2.322       .  S
Eu349       O957   2.506       .  S
Eu349      O1592   2.438   1_455  S
Eu349      O1579   2.384   1_465  S
Eu349      O2225   2.360   1_455  S
Eu349       O988   2.335       .  S
Eu350       O964   2.447   1_545  S
Eu350       O988   2.355   1_545  S
Eu350       O666   2.353   1_545  S
Eu351       O965   2.502   1_545  S
Eu351       O977   2.378   1_545  S
Eu351       O678   2.367   1_545  S
Eu352      O1587   2.459   1_455  S
Eu352      O1601   2.372   1_455  S
Eu352       O364   2.364       .  S
Eu352      O1302   2.352   1_455  S
O353      Eu2221   2.364       .  S
O353       Eu975   2.365       .  S
O353      Eu1600   2.358       .  S
O354       Eu972   2.342   1_455  S
O354       Eu662   2.339       .  S
C355        C614   1.472       .  S
C356        C617   1.490       .  S
C357        C598   1.455       .  S
C358        C593   1.462   1_545  S
C359        C605   1.484       .  S
C360        C602   1.474   1_565  S
C361        C585   1.484       .  S
C362        C577   1.495       .  S
H363        O364   0.966       .  S
O364       Eu973   2.371       .  S
O364       Eu974   2.352       .  S
H365        O366   0.966       .  S
O366      Eu2220   2.367       .  S
O366       Eu663   2.337   1_556  S
O366      Eu1288   2.370       .  S
O367        C378   1.294       .  A
O367       Eu403   2.471       .  S
O368        C379   1.276       .  A
O368       Eu402   2.377       .  S
O369        C380   1.288       .  A
O369       Eu375   2.441   1_455  S
O370        C381   1.296       .  A
O370      Eu1623   2.482       .  S
O371        C381   1.288       .  A
O371       Eu405   2.443       .  S
O372        C380   1.305       .  A
O372       Eu404   2.536       .  S
O373        C379   1.297       .  A
O373       Eu375   2.494       .  S
O374        C378   1.292       .  A
O374       Eu375   2.455   1_455  S
Eu375      O1618   2.502       .  S
Eu375      O1633   2.357       .  S
Eu375       O377   2.380   1_655  S
Eu375      O1624   2.330       .  S
Eu375       O383   2.360   1_655  S
O376      Eu1623   2.331       .  S
O376       Eu405   2.357       .  S
O376      Eu1650   2.327       .  S
O377       Eu403   2.354       .  S
O377       Eu404   2.354       .  S
C378        C622   1.476       .  S
C379        C610   1.459       .  S
C380        C553   1.496       .  S
C381        C545   1.477       .  S
H382        O383   0.965       .  S
O383       Eu404   2.358       .  S
O383       Eu402   2.339   1_455  S
H384        O385   0.966       .  S
O385      Eu1623   2.367       .  S
O385      Eu1651   2.344       .  S
O385       Eu405   2.366       .  S
O386        C409   1.277       .  A
O386       Eu402   2.395       .  S
O387        C410   1.299       .  A
O387       Eu403   2.504       .  S
O388        C411   1.290       .  A
O388       Eu404   2.440       .  S
O389        C412   1.299       .  A
O389       Eu405   2.494       .  S
O390        C413   1.293       .  A
O390       Eu405   2.473       .  S
O391        C414   1.287       .  A
O391       Eu404   2.440       .  S
O392        C415   1.280       .  A
O392       Eu406   2.393   1_455  S
O393        C416   1.281       .  A
O393      Eu1654   2.405       .  S
O394        C415   1.304       .  A
O394       Eu404   2.521       .  S
O395        C416   1.295       .  A
O395       Eu405   2.474       .  S
O396        C411   1.286       .  A
O396       Eu402   2.444   1_455  S
O397        C414   1.298       .  A
O397       Eu403   2.494       .  S
O398        C413   1.301       .  A
O398      Eu1651   2.511       .  S
O399        C412   1.285       .  A
O399      Eu1650   2.434       .  S
O400        C409   1.300       .  A
O400       Eu406   2.507       .  S
O401        C410   1.290       .  A
O401       Eu406   2.454   1_455  S
Eu402      O1647   2.427       .  S
Eu402      O1624   2.345       .  S
Eu402      O1668   2.342       .  S
Eu402       O408   2.325   1_655  S
Eu403      O1646   2.442   1_455  S
Eu403      O1633   2.379   1_455  S
Eu403      O1655   2.361   1_455  S
Eu403       O418   2.341       .  S
Eu404       O418   2.365       .  S
Eu404       O408   2.355       .  S
Eu405       O407   2.343       .  S
Eu405       O420   2.352       .  S
Eu406      O1641   2.481       .  S
Eu406      O1655   2.346       .  S
Eu406       O418   2.384   1_655  S
Eu406      O1668   2.321       .  S
Eu406       O408   2.349   1_655  S
O407      Eu1651   2.357       .  S
O407      Eu1654   2.358       .  S
C409        C613   1.475       .  S
C410        C618   1.490       .  S
C411        C569   1.469       .  S
C412        C573   1.484       .  S
C413        C561   1.502       .  S
C414        C565   1.488       .  S
C415        C557   1.469       .  S
C416        C549   1.463       .  S
H417        O418   0.965       .  S
H419        O420   0.966       .  S
O420      Eu1650   2.345       .  S
O420      Eu1654   2.338       .  S
O421        C432   1.306       .  A
O421       Eu457   2.541       .  S
O422        C433   1.288       .  A
O422       Eu456   2.443       .  S
O423        C434   1.302       .  A
O423       Eu429   2.528       .  S
O424        C435   1.305       .  A
O424      Eu1053   2.525       .  S
O425        C435   1.283       .  A
O425       Eu459   2.418       .  S
O426        C434   1.274       .  A
O426       Eu458   2.372       .  S
O427        C433   1.296       .  A
O427       Eu429   2.483       .  S
O428        C432   1.289       .  A
O428       Eu429   2.445       .  S
Eu429      O1048   2.492       .  S
Eu429      O1063   2.383       .  S
Eu429       O431   2.356       .  S
Eu429      O1054   2.361       .  S
Eu429       O437   2.352       .  S
O430      Eu1053   2.338       .  S
O430       Eu459   2.368       .  S
O430      Eu1080   2.356       .  S
O431       Eu457   2.357       .  S
O431       Eu458   2.330       .  S
C432       C1230   1.500       .  S
C433       C1225   1.477       .  S
C434        C533   1.472       .  S
C435        C529   1.487       .  S
H436        O437   0.966       .  S
O437       Eu458   2.343       .  S
O437       Eu456   2.356       .  S
H438        O439   0.967       .  S
O439      Eu1053   2.365       .  S
O439      Eu1081   2.367   1_545  S
O439       Eu459   2.367       .  S
O440        C463   1.294       .  A
O440       Eu456   2.479       .  S
O441        C464   1.311       .  A
O441       Eu457   2.570       .  S
O442        C465   1.277       .  A
O442       Eu458   2.395       .  S
O443        C466   1.289       .  A
O443       Eu459   2.447       .  S
O444        C467   1.296       .  A
O444       Eu459   2.483       .  S
O445        C468   1.280       .  A
O445       Eu458   2.410       .  S
O446        C469   1.290       .  A
O446       Eu460   2.445       .  S
O447        C470   1.281       .  A
O447      Eu1084   2.417   1_545  S
O448        C469   1.276       .  A
O448       Eu458   2.389       .  S
O449        C470   1.295       .  A
O449       Eu459   2.480       .  S
O450        C465   1.299       .  A
O450       Eu456   2.500       .  S
O451        C468   1.292       .  A
O451       Eu457   2.456       .  S
O452        C467   1.288       .  A
O452      Eu1081   2.442   1_545  S
O453        C466   1.304       .  A
O453      Eu1080   2.526       .  S
O454        C463   1.287       .  A
O454       Eu460   2.443       .  S
O455        C464   1.280       .  A
O455       Eu460   2.402       .  S
Eu456      O1077   2.437       .  S
Eu456      O1054   2.371       .  S
Eu456      O1098   2.357       .  S
Eu456       O462   2.335       .  S
Eu457      O1076   2.416       .  S
Eu457      O1063   2.380       .  S
Eu457      O1085   2.361       .  S
Eu457       O472   2.347       .  S
Eu458       O472   2.329       .  S
Eu458       O462   2.340       .  S
Eu459       O461   2.330       .  S
Eu459       O474   2.348       .  S
Eu460      O1071   2.399       .  S
Eu460      O1085   2.359       .  S
Eu460       O472   2.340       .  S
Eu460      O1098   2.338       .  S
Eu460       O462   2.322       .  S
O461      Eu1081   2.369   1_545  S
O461      Eu1084   2.336   1_545  S
C463       C1221   1.479       .  S
C464       C1218   1.497       .  S
C465        C558   1.470       .  S
C466        C554   1.497       .  S
C467        C546   1.479       .  S
C468        C550   1.460       .  S
C469        C537   1.453       .  S
C470        C541   1.474       .  S
H471        O472   0.966       .  S
H473        O474   0.965       .  S
O474      Eu1080   2.363       .  S
O474      Eu1084   2.332   1_545  S
O475        C486   1.302       .  A
O475       Eu511   2.517   1_556  S
O476        C487   1.298       .  A
O476       Eu510   2.501   1_556  S
O477        C488   1.287       .  A
O478        C489   1.292       .  A
O478       Eu483   2.464       .  S
O479        C489   1.284       .  A
O479       Eu513   2.423       .  S
O480        C488   1.303       .  A
O480       Eu512   2.519       .  S
O481        C487   1.275       .  A
O481       Eu483   2.375       .  S
O482        C486   1.276       .  A
O482       Eu483   2.384       .  S
Eu483       O493   2.331       .  S
Eu483       O484   2.337       .  S
O484       Eu513   2.330       .  S
O484       Eu510   2.332   1_556  S
O485       Eu512   2.364       .  S
C488        C566   1.484       .  S
C489        C570   1.465       .  S
H490        O491   0.966       .  S
O491       Eu512   2.376       .  S
H492        O493   0.966       .  S
O493       Eu511   2.344   1_556  S
O493       Eu513   2.354       .  S
O494        C517   1.288       .  A
O494       Eu510   2.446       .  S
O495        C518   1.286       .  A
O495       Eu511   2.429       .  S
O496        C519   1.304       .  A
O496       Eu512   2.521       .  S
O497        C520   1.292       .  A
O497       Eu513   2.463       .  S
O498        C521   1.283       .  A
O498       Eu513   2.417       .  S
O499        C522   1.304       .  A
O499       Eu512   2.531       .  S
O500        C523   1.294       .  A
O501        C524   1.301       .  A
O501       Eu514   2.517   1_556  S
O502        C523   1.304       .  A
O502       Eu512   2.525       .  S
O503        C524   1.282       .  A
O503       Eu513   2.413       .  S
O504        C519   1.280       .  A
O505        C522   1.279       .  A
O506        C521   1.298       .  A
O506       Eu511   2.490   1_556  S
O507        C520   1.275       .  A
O507       Eu510   2.372   1_556  S
O508        C517   1.302       .  A
O508       Eu514   2.516       .  S
O509        C518   1.306       .  A
O509       Eu514   2.535       .  S
Eu510       O528   2.358   1_554  S
Eu511       O515   2.369   1_554  S
Eu512       O526   2.374       .  S
Eu512       O516   2.369       .  S
Eu513       O515   2.351       .  S
Eu513       O528   2.333       .  S
Eu514       O515   2.356   1_554  S
Eu514       O528   2.367   1_554  S
C519        C534   1.479       .  S
C520        C538   1.448       .  S
C521        C542   1.470       .  S
C522        C530   1.482       .  S
C523        C562   1.501       .  S
C524        C574   1.479       .  S
H525        O526   0.965       .  S
H527        O528   0.966       .  S
C529        C530   1.334       .  D
C529        H531   1.087       .  S
C530        H532   1.088       .  S
C533        C534   1.328       .  D
C533        H535   1.088       .  S
C534        H536   1.087       .  S
C537        C538   1.328       .  D
C537        H539   1.087       .  S
C538        H540   1.088       .  S
C541        C542   1.336       .  D
C541        H543   1.087       .  S
C542        H544   1.087       .  S
C545        C546   1.342       .  D
C545        H547   1.087       .  S
C546        H548   1.087       .  S
C549        C550   1.332       .  D
C549        H551   1.087       .  S
C550        H552   1.087       .  S
C553        C554   1.344       .  D
C553        H555   1.087       .  S
C554        H556   1.087       .  S
C557        C558   1.329       .  D
C557        H559   1.088       .  S
C558        H560   1.088       .  S
C561        C562   1.350       .  D
C561        H563   1.086       .  S
C562        H564   1.087       .  S
C565        C566   1.340       .  D
C565        H567   1.087       .  S
C566        H568   1.087       .  S
C569        C570   1.339       .  D
C569        H571   1.087       .  S
C570        H572   1.087       .  S
C573        C574   1.337       .  D
C573        H575   1.087       .  S
C574        H576   1.088       .  S
C577        C578   1.350       .  D
C577        H579   1.086       .  S
C581        C582   1.326       .  D
C582        H584   1.087       .  S
C585        C586   1.343       .  D
C585        H587   1.087       .  S
C589        C590   1.337       .  D
C589        H591   1.087       .  S
C593        C594   1.346       .  D
C593       H1219   1.087   1_565  S
C594       C1088   1.462       .  S
C594        H596   1.087       .  S
H595       C1217   1.088       .  S
C597       C1087   1.460       .  S
C597        C598   1.340       .  D
C597        H599   1.087       .  S
C598       H1224   1.087       .  S
H600       C1222   1.087       .  S
C601       C1057   1.479       .  S
C601        C602   1.333       .  D
C601        H603   1.087       .  S
C602       H1228   1.087   1_545  S
H604       C1226   1.087       .  S
C605        C606   1.345       .  D
C605        H607   1.087       .  S
C606       C1056   1.487   1_565  S
C606       H1232   1.087   1_565  S
H608       C1230   1.087       .  S
C609        C610   1.328       .  D
C609       H1859   1.087       .  S
C610        H612   1.088       .  S
H611       C1857   1.087       .  S
C613        C614   1.330   1_655  D
C613       H1863   1.087       .  S
C614        H616   1.087       .  S
H615       C1861   1.088       .  S
C617        C618   1.345       .  D
C617        H619   1.087       .  S
C618       H1868   1.087       .  S
H620       C1866   1.087       .  S
C621        C622   1.349       .  D
C621        H623   1.087   1_455  S
C622       H1872   1.087       .  S
H624       C1870   1.087       .  S
O625        C636   1.285       .  A
O625       Eu661   2.424       .  S
O626        C637   1.292       .  A
O626       Eu660   2.469       .  S
O627        C638   1.297       .  A
O627       Eu633   2.497   1_456  S
O628        C639   1.302       .  A
O628      Eu1881   2.509       .  S
O629        C639   1.290       .  A
O629       Eu663   2.444       .  S
O630        C638   1.286       .  A
O630       Eu662   2.426       .  S
O631        C637   1.286       .  A
O631       Eu945   2.435       .  S
O632        C636   1.294   1_655  A
O632       Eu633   2.468       .  S
Eu633      O1876   2.513       .  S
Eu633       O943   2.471   1_554  S
Eu633      O1891   2.367       .  S
Eu633       O635   2.358   1_655  S
Eu633      O2194   2.354   1_554  S
Eu633       O953   2.364   1_654  S
O634      Eu2193   2.347       .  S
O634       Eu975   2.358       .  S
O634      Eu1908   2.348       .  S
O635       Eu661   2.345       .  S
O635       Eu662   2.352   1_554  S
C636        C933   1.465       .  S
C637        C921   1.473       .  S
C638        C902   1.479       .  S
C639        C893   1.483       .  S
H640        O641   0.965       .  S
O641       Eu945   2.342   1_455  S
O641       Eu974   2.352       .  S
O641       Eu660   2.346   1_455  S
H642        O643   0.966       .  S
O643      Eu1881   2.364       .  S
O643      Eu1909   2.339       .  S
O643       Eu663   2.397       .  S
O644        C667   1.293       .  A
O645        C668   1.298       .  A
O646        C669   1.292       .  A
O646       Eu974   2.456       .  S
O647        C670   1.309       .  A
O647       Eu975   2.553       .  S
O648        C671   1.304       .  A
O648       Eu663   2.529       .  S
O649        C672   1.286       .  A
O649       Eu662   2.440   1_554  S
O650        C673   1.290       .  A
O650       Eu664   2.457   1_556  S
O651        C674   1.283       .  A
O651      Eu1912   2.420       .  S
O652        C673   1.283       .  A
O653        C674   1.299       .  A
O654        C669   1.284       .  A
O654       Eu660   2.426   1_455  S
O655        C672   1.295       .  A
O655       Eu661   2.480       .  S
O656        C671   1.290       .  A
O656      Eu1909   2.456       .  S
O657        C670   1.275       .  A
O657      Eu1908   2.373       .  S
O658        C667   1.286       .  A
O658       Eu976   2.429       .  S
O659        C668   1.277       .  A
O659       Eu664   2.382       .  S
Eu660      O1905   2.447       .  S
Eu660      O1882   2.335       .  S
Eu660      O1302   2.356       .  S
Eu661      O1904   2.475   1_455  S
Eu661      O1891   2.356   1_455  S
Eu661      O1289   2.347   1_455  S
Eu662       O958   2.475       .  S
Eu662       O953   2.339       .  S
Eu663       O959   2.574   1_554  S
Eu663       O946   2.373   1_554  S
Eu664      O1899   2.428   1_455  S
Eu664       O970   2.391   1_554  S
Eu664      O1913   2.349   1_455  S
Eu664       O676   2.337       .  S
Eu664      O2238   2.350   1_454  S
Eu664       O978   2.326   1_554  S
O665      Eu1285   2.354   1_565  S
O665      Eu1912   2.351       .  S
O666       Eu976   2.352       .  S
C667        C926   1.474       .  S
C668        C929   1.458       .  S
C669        C910   1.466       .  S
C670        C905   1.480       .  S
C671        C917   1.501       .  S
C672        C914   1.479       .  S
C673        C897   1.467       .  S
C674        C889   1.472       .  S
H675        O676   0.966       .  S
H677        O678   0.966       .  S
O678      Eu1284   2.355   1_565  S
O678      Eu2224   2.373       .  S
O679        C690   1.288       .  A
O679       Eu715   2.444       .  S
O680        C691   1.293       .  A
O680       Eu714   2.460       .  S
O681        C692   1.310       .  A
O681       Eu687   2.558       .  S
O682        C693   1.302       .  A
O682      Eu1935   2.516       .  S
O683        C693   1.290       .  A
O683       Eu717   2.454       .  S
O684        C692   1.282       .  A
O684       Eu716   2.409       .  S
O685        C691   1.290       .  A
O685       Eu687   2.454   1_655  S
O686        C690   1.294       .  A
O686       Eu687   2.456       .  S
Eu687      O1930   2.543   1_455  S
Eu687      O1945   2.368   1_455  S
Eu687       O689   2.355       .  S
Eu687      O1936   2.359   1_455  S
Eu687       O695   2.359       .  S
O688      Eu1935   2.351       .  S
O688       Eu717   2.354       .  S
O688      Eu1962   2.352       .  S
O689       Eu715   2.352       .  S
O689       Eu716   2.357       .  S
C690        C934   1.471       .  S
C691        C922   1.477       .  S
C692        C865   1.494       .  S
C693        C857   1.497       .  S
H694        O695   0.966       .  S
O695       Eu716   2.370       .  S
O695       Eu714   2.361   1_455  S
H696        O697   0.965       .  S
O697      Eu1935   2.350       .  S
O697      Eu1963   2.372       .  S
O697       Eu717   2.367       .  S
O698        C721   1.292       .  A
O698       Eu714   2.469       .  S
O699        C722   1.297       .  A
O699       Eu715   2.476       .  S
O700        C723   1.295       .  A
O700       Eu716   2.466       .  S
O701        C724   1.304       .  A
O701       Eu717   2.529       .  S
O702        C725   1.302       .  A
O702       Eu717   2.518       .  S
O703        C726   1.293       .  A
O703       Eu716   2.474       .  S
O704        C727   1.276       .  A
O704       Eu718   2.389   1_455  S
O705        C728   1.289       .  A
O705      Eu1966   2.455       .  S
O706        C727   1.298       .  A
O706       Eu716   2.487       .  S
O707        C728   1.293       .  A
O707       Eu717   2.459       .  S
O708        C723   1.289       .  A
O708       Eu714   2.450   1_455  S
O709        C726   1.295       .  A
O709       Eu715   2.478       .  S
O710        C725   1.292       .  A
O710      Eu1963   2.462       .  S
O711        C724   1.276       .  A
O711      Eu1962   2.381       .  S
O712        C721   1.286       .  A
O712       Eu718   2.433       .  S
O713        C722   1.280       .  A
O713       Eu718   2.409   1_455  S
Eu714      O1959   2.469       .  S
Eu714      O1936   2.345       .  S
Eu714      O1980   2.353       .  S
Eu714       O720   2.351   1_655  S
Eu715      O1958   2.469   1_455  S
Eu715      O1945   2.362   1_455  S
Eu715      O1967   2.352   1_455  S
Eu715       O730   2.352       .  S
Eu716       O730   2.334       .  S
Eu716       O720   2.335       .  S
Eu717       O719   2.366       .  S
Eu717       O732   2.357       .  S
Eu718      O1953   2.395       .  S
Eu718      O1967   2.348       .  S
Eu718       O730   2.352   1_655  S
Eu718      O1980   2.329       .  S
Eu718       O720   2.331   1_655  S
O719      Eu1963   2.357       .  S
O719      Eu1966   2.351       .  S
C721        C925   1.476       .  S
C722        C930   1.468       .  S
C723        C881   1.478       .  S
C724        C885   1.471       .  S
C725        C873   1.497       .  S
C726        C877   1.491       .  S
C727        C869   1.464       .  S
C728        C861   1.477       .  S
H729        O730   0.966       .  S
H731        O732   0.965       .  S
O732      Eu1962   2.354       .  S
O732      Eu1966   2.347       .  S
O733        C744   1.302       .  A
O733       Eu769   2.513       .  S
O734        C745   1.276       .  A
O734       Eu768   2.374   1_565  S
O735        C746   1.291       .  A
O735       Eu741   2.458       .  S
O736        C747   1.288       .  A
O737        C747   1.297       .  A
O737       Eu771   2.483       .  S
O738        C746   1.284       .  A
O738       Eu770   2.434       .  S
O739        C745   1.299       .  A
O739       Eu741   2.503       .  S
O740        C744   1.288       .  A
O740       Eu741   2.434       .  S
Eu741       O743   2.364       .  S
Eu741       O749   2.329       .  S
O742       Eu771   2.364       .  S
O743       Eu769   2.363       .  S
O743       Eu770   2.318       .  S
C746        C845   1.470       .  S
C747        C841   1.478       .  S
H748        O749   0.965       .  S
O749       Eu770   2.344       .  S
O749       Eu768   2.352   1_565  S
H750        O751   0.966       .  S
O751       Eu771   2.379       .  S
O752        C775   1.280       .  A
O752       Eu768   2.406       .  S
O753        C776   1.308       .  A
O753       Eu769   2.547   1_545  S
O754        C777   1.276       .  A
O754       Eu770   2.377       .  S
O755        C778   1.308       .  A
O755       Eu771   2.551       .  S
O756        C779   1.304       .  A
O756       Eu771   2.528       .  S
O757        C780   1.285       .  A
O757       Eu770   2.437       .  S
O758        C781   1.298       .  A
O758       Eu772   2.494   1_565  S
O759        C782   1.281       .  A
O760        C781   1.279       .  A
O760       Eu770   2.393       .  S
O761        C782   1.299       .  A
O761       Eu771   2.506       .  S
O762        C777   1.299       .  A
O762       Eu768   2.505   1_565  S
O763        C780   1.293       .  A
O763       Eu769   2.467       .  S
O764        C779   1.290       .  A
O765        C778   1.281       .  A
O766        C775   1.298       .  A
O766       Eu772   2.497       .  S
O767        C776   1.282       .  A
O767       Eu772   2.408       .  S
Eu768       O774   2.328   1_545  S
Eu769       O784   2.348       .  S
Eu770       O784   2.334       .  S
Eu770       O774   2.357       .  S
Eu771       O773   2.364       .  S
Eu771       O786   2.365       .  S
Eu772       O784   2.371   1_545  S
Eu772       O774   2.327   1_545  S
C777        C870   1.460       .  S
C778        C866   1.491       .  S
C779        C858   1.497       .  S
C780        C862   1.474       .  S
C781        C849   1.465       .  S
C782        C853   1.475       .  S
H783        O784   0.964       .  S
H785        O786   0.965       .  S
O787        C798   1.293       .  A
O787       Eu823   2.470       .  S
O788        C799   1.292       .  A
O788       Eu822   2.458       .  S
O789        C800   1.291       .  A
O789      Eu1107   2.464   1_554  S
O790        C801   1.294       .  A
O790       Eu795   2.483       .  S
O791        C801   1.283       .  A
O791       Eu825   2.421       .  S
O792        C800   1.296       .  A
O792       Eu824   2.489       .  S
O793        C799   1.288       .  A
O793       Eu795   2.446       .  S
O794        C798   1.291       .  A
O794       Eu795   2.458       .  S
Eu795      O1101   2.420       .  S
Eu795       O805   2.337       .  S
Eu795      O1109   2.360       .  S
Eu795       O796   2.341       .  S
Eu795      O1115   2.375       .  S
O796       Eu825   2.326       .  S
O796       Eu822   2.359       .  S
O797      Eu1107   2.351   1_554  S
O797      Eu1135   2.369       .  S
O797       Eu824   2.355       .  S
C798       C1213   1.482       .  S
C799       C1210   1.471       .  S
C800        C878   1.490       .  S
C801        C882   1.473       .  S
H802        O803   0.966       .  S
O803      Eu1107   2.345   1_554  S
O803       Eu824   2.343       .  S
O803      Eu1134   2.353   1_554  S
H804        O805   0.966       .  S
O805       Eu823   2.367       .  S
O805       Eu825   2.351       .  S
O806        C829   1.292       .  A
O806       Eu822   2.470       .  S
O807        C830   1.296       .  A
O807       Eu823   2.486       .  S
O808        C831   1.294       .  A
O808       Eu824   2.468       .  S
O809        C832   1.296       .  A
O809       Eu825   2.477       .  S
O810        C833   1.286       .  A
O810       Eu825   2.440       .  S
O811        C834   1.288       .  A
O811       Eu824   2.443       .  S
O812        C835   1.301       .  A
O812      Eu1138   2.512       .  S
O813        C836   1.303       .  A
O813       Eu826   2.520       .  S
O814        C835   1.290       .  A
O814       Eu824   2.459       .  S
O815        C836   1.277       .  A
O815       Eu825   2.391       .  S
O816        C831   1.286       .  A
O816      Eu1134   2.432   1_554  S
O817        C834   1.297       .  A
O817      Eu1135   2.482       .  S
O818        C833   1.299       .  A
O818       Eu823   2.488       .  S
O819        C832   1.282       .  A
O819       Eu822   2.420       .  S
O820        C829   1.298       .  A
O820       Eu826   2.492       .  S
O821        C830   1.295       .  A
O821       Eu826   2.487       .  S
Eu822      O1128   2.459       .  S
Eu822      O1115   2.352       .  S
Eu822       O840   2.361       .  S
Eu822      O1140   2.342       .  S
Eu823      O1129   2.488       .  S
Eu823      O1109   2.359       .  S
Eu823       O827   2.361       .  S
Eu823      O1150   2.356       .  S
Eu824       O838   2.366       .  S
Eu824       O828   2.349       .  S
Eu825       O827   2.363       .  S
Eu825       O840   2.345       .  S
Eu826      O1124   2.440       .  S
Eu826       O827   2.341       .  S
Eu826      O1150   2.377       .  S
Eu826       O840   2.346       .  S
Eu826      O1140   2.376       .  S
O828      Eu1134   2.362   1_554  S
O828      Eu1138   2.349       .  S
C829       C1202   1.493       .  S
C830       C1206   1.497       .  S
C831        C846   1.471       .  S
C832        C850   1.473       .  S
C833        C854   1.482       .  S
C834        C842   1.477       .  S
C835        C874   1.497       .  S
C836        C886   1.474       .  S
H837        O838   0.966       .  S
O838      Eu1135   2.377       .  S
O838      Eu1138   2.370       .  S
H839        O840   0.966       .  S
C841        C842   1.341       .  D
C841        H843   1.087       .  S
C842        H844   1.087       .  S
C845        C846   1.339       .  D
C845        H847   1.087       .  S
C846        H848   1.087       .  S
C849        C850   1.332       .  D
C849        H851   1.088       .  S
C850        H852   1.087       .  S
C853        C854   1.336       .  D
C853        H855   1.088       .  S
C854        H856   1.087       .  S
C857        C858   1.345       .  D
C857        H859   1.087       .  S
C858        H860   1.087       .  S
C861        C862   1.342       .  D
C861        H863   1.087       .  S
C862        H864   1.087       .  S
C865        C866   1.334       .  D
C865        H867   1.087       .  S
C866        H868   1.087       .  S
C869        C870   1.327       .  D
C869        H871   1.087       .  S
C870        H872   1.088       .  S
C873        C874   1.347       .  D
C873        H875   1.087       .  S
C874        H876   1.087       .  S
C877        C878   1.349       .  D
C877        H879   1.086       .  S
C878        H880   1.087       .  S
C881        C882   1.340       .  D
C881        H883   1.087       .  S
C882        H884   1.087       .  S
C885        C886   1.328       .  D
C885        H887   1.088       .  S
C886        H888   1.087       .  S
C889        C890   1.336   1_554  D
C889        H891   1.087       .  S
C890       C1141   1.479       .  S
C890       H1204   1.087       .  S
H892       C1202   1.087       .  S
C893        C894   1.343       .  D
C893       H1207   1.087       .  S
C894       C1142   1.486       .  S
C894        H896   1.087       .  S
H895       C1205   1.087       .  S
C897        C898   1.339       .  D
C897        H899   1.087       .  S
C898       C1111   1.470       .  S
C898       H1212   1.087       .  S
H900       C1210   1.087       .  S
C901       C1110   1.480       .  S
C901        C902   1.355       .  D
C901        H903   1.087       .  S
C902       H1216   1.086       .  S
H904       C1214   1.087       .  S
C905        C906   1.325       .  D
C906        H908   1.088       .  S
C909        C910   1.337       .  D
C909        H911   1.087       .  S
C913        C914   1.338       .  D
C913        H915   1.087       .  S
C917        C918   1.347       .  D
C917        H919   1.087       .  S
C921        C922   1.343       .  D
C921       H2171   1.087       .  S
C922        H924   1.087       .  S
H923       C2169   1.087       .  S
C925        C926   1.351   1_655  D
C925       H2175   1.087       .  S
C926        H928   1.086       .  S
H927       C2173   1.087       .  S
C929        C930   1.329       .  D
C929        H931   1.088       .  S
C930       H2180   1.087       .  S
H932       C2178   1.087       .  S
C933        C934   1.338       .  D
C933        H935   1.087       .  S
C934       H2184   1.087       .  S
H936       C2182   1.087       .  S
O937        C948   1.304       .  A
O937       Eu973   2.532       .  S
O938        C949   1.281       .  A
O938       Eu972   2.408       .  S
O939        C950   1.292       .  A
O939       Eu945   2.471   1_455  S
O940        C951   1.298       .  A
O940      Eu2193   2.498       .  S
O941        C951   1.293       .  A
O941       Eu975   2.471       .  S
O942        C950   1.291       .  A
O942       Eu974   2.458       .  S
O943        C949   1.295       .  A
O944        C948   1.283   1_655  A
O944       Eu945   2.416       .  S
Eu945      O2188   2.472       .  S
Eu945      O2203   2.356       .  S
Eu945       O947   2.352   1_655  S
Eu945      O1882   2.343       .  S
O946      Eu1881   2.372   1_556  S
O946      Eu2220   2.327       .  S
O947       Eu973   2.353       .  S
O947       Eu974   2.353       .  S
C948       C1245   1.486       .  S
C949       C1233   1.461       .  S
C950       C1214   1.482       .  S
C951       C1205   1.496       .  S
H952        O953   0.966       .  S
O953       Eu972   2.346   1_455  S
H954        O955   0.965       .  S
O955      Eu2193   2.355       .  S
O955      Eu2221   2.377       .  S
O955       Eu975   2.374       .  S
O956        C979   1.285       .  A
O957        C980   1.302       .  A
O958        C981   1.293       .  A
O959        C982   1.311       .  A
O960        C983   1.307       .  A
O960       Eu975   2.546       .  S
O961        C984   1.289       .  A
O961       Eu974   2.451       .  S
O962        C985   1.292       .  A
O962       Eu976   2.458       .  S
O963        C986   1.292       .  A
O963      Eu2224   2.465       .  S
O964        C985   1.288       .  A
O965        C986   1.300       .  A
O966        C981   1.286       .  A
O966       Eu972   2.442   1_455  S
O967        C984   1.296       .  A
O967       Eu973   2.474       .  S
O968        C983   1.289       .  A
O968      Eu2221   2.448       .  S
O969        C982   1.277       .  A
O969      Eu2220   2.390       .  S
O970        C979   1.277       .  A
O971        C980   1.279       .  A
O971       Eu976   2.403       .  S
Eu972      O2217   2.444       .  S
Eu972      O2194   2.335       .  S
Eu972      O1614   2.347       .  S
Eu973      O2216   2.470   1_455  S
Eu973      O2203   2.360   1_455  S
Eu973      O1601   2.371   1_455  S
Eu976      O2211   2.470   1_455  S
Eu976      O2225   2.345   1_455  S
Eu976       O988   2.359       .  S
Eu976      O1926   2.339   1_455  S
O977      Eu1597   2.366   1_565  S
O977      Eu2224   2.355       .  S
C979       C1238   1.439       .  S
C980       C1241   1.475       .  S
C981       C1222   1.482       .  S
C982       C1217   1.498       .  S
C983       C1229   1.500       .  S
C984       C1226   1.481       .  S
C985       C1209   1.471       .  S
C986       C1201   1.492       .  S
H987        O988   0.966       .  S
H989        O990   0.965       .  S
O990      Eu1596   2.344       .  S
O990      Eu1912   2.332   1_556  S
O991       C1002   1.302       .  A
O991      Eu1027   2.509       .  S
O992       C1003   1.279       .  A
O992      Eu1026   2.398       .  S
O993       C1004   1.300       .  A
O993       Eu999   2.504       .  S
O994       C1005   1.299       .  A
O994      Eu2247   2.495       .  S
O995       C1005   1.285       .  A
O995      Eu1029   2.435       .  S
O996       C1004   1.288       .  A
O996      Eu1028   2.444       .  S
O997       C1003   1.296       .  A
O997       Eu999   2.481       .  S
O998       C1002   1.288       .  A
O998       Eu999   2.445       .  S
Eu999      O2242   2.455   1_455  S
Eu999      O2257   2.367   1_455  S
Eu999      O1001   2.348       .  S
Eu999      O2248   2.354   1_455  S
Eu999      O1007   2.339       .  S
O1000     Eu2247   2.344       .  S
O1000     Eu1029   2.355       .  S
O1000     Eu2274   2.357       .  S
O1001     Eu1027   2.363       .  S
O1001     Eu1028   2.368       .  S
C1002      C1246   1.491       .  S
C1003      C1234   1.463   1_455  S
C1004      C1177   1.489       .  S
C1005      C1169   1.485       .  S
H1006      O1007   0.966       .  S
O1007     Eu1028   2.354       .  S
O1007     Eu1026   2.343       .  S
H1008      O1009   0.966       .  S
O1009     Eu2247   2.347       .  S
O1009     Eu2275   2.368       .  S
O1009     Eu1029   2.363       .  S
O1010      C1033   1.285   1_455  A
O1010     Eu1026   2.413       .  S
O1011      C1034   1.301   1_455  A
O1011     Eu1027   2.512       .  S
O1012      C1035   1.294       .  A
O1012     Eu1028   2.475       .  S
O1013      C1036   1.299       .  A
O1013     Eu1029   2.491       .  S
O1014      C1037   1.291       .  A
O1014     Eu1029   2.463       .  S
O1015      C1038   1.284       .  A
O1015     Eu1028   2.419       .  S
O1016      C1039   1.281       .  A
O1016     Eu1030   2.418   1_455  S
O1017      C1040   1.287       .  A
O1017     Eu2278   2.448       .  S
O1018      C1039   1.300       .  A
O1018     Eu1028   2.505       .  S
O1019      C1040   1.293       .  A
O1019     Eu1029   2.466       .  S
O1020      C1035   1.281       .  A
O1020     Eu1026   2.411       .  S
O1021      C1038   1.308       .  A
O1021     Eu1027   2.549       .  S
O1022      C1037   1.299       .  A
O1022     Eu2275   2.492       .  S
O1023      C1036   1.284       .  A
O1023     Eu2274   2.427       .  S
O1024      C1033   1.278       .  A
O1024     Eu1030   2.396       .  S
O1025      C1034   1.276       .  A
O1025     Eu1030   2.385       .  S
Eu1026     O2271   2.404   1_455  S
Eu1026     O2248   2.339   1_455  S
Eu1026     O2292   2.337   1_455  S
Eu1026     O1032   2.333       .  S
Eu1027     O2270   2.552   1_455  S
Eu1027     O2257   2.367   1_455  S
Eu1027     O2279   2.368   1_455  S
Eu1027     O1042   2.375       .  S
Eu1028     O1042   2.363       .  S
Eu1028     O1032   2.326       .  S
Eu1029     O1031   2.348       .  S
Eu1029     O1044   2.345       .  S
Eu1030     O2265   2.407       .  S
Eu1030     O2279   2.335       .  S
Eu1030     O1042   2.345   1_655  S
Eu1030     O2292   2.340       .  S
Eu1030     O1032   2.337   1_655  S
O1031     Eu2275   2.355       .  S
O1031     Eu2278   2.352       .  S
C1033      C1237   1.440       .  S
C1034      C1242   1.468       .  S
C1035      C1193   1.464       .  S
C1036      C1197   1.478       .  S
C1037      C1185   1.491       .  S
C1038      C1189   1.492       .  S
C1039      C1181   1.485       .  S
C1040      C1173   1.479       .  S
H1041      O1042   0.965       .  S
H1043      O1044   0.965       .  S
O1044     Eu2274   2.363       .  S
O1044     Eu2278   2.337       .  S
O1045      C1056   1.297   1_565  A
O1045     Eu1081   2.484       .  S
O1046      C1057   1.282       .  A
O1046     Eu1080   2.409       .  S
O1047      C1058   1.294       .  A
O1047     Eu1053   2.475   1_565  S
O1048      C1059   1.297       .  A
O1049      C1059   1.295       .  A
O1049     Eu1083   2.482       .  S
O1050      C1058   1.294       .  A
O1050     Eu1082   2.472       .  S
O1051      C1057   1.302       .  A
O1051     Eu1053   2.509       .  S
O1052      C1056   1.291       .  A
O1052     Eu1053   2.460       .  S
Eu1053     O1055   2.374   1_545  S
Eu1053     O1061   2.358   1_545  S
O1054     Eu1083   2.374       .  S
O1055     Eu1081   2.338       .  S
O1055     Eu1082   2.351       .  S
C1058      C1157   1.485       .  S
C1059      C1153   1.493       .  S
H1060      O1061   0.966       .  S
O1061     Eu1082   2.367       .  S
O1061     Eu1080   2.350   1_565  S
H1062      O1063   0.967       .  S
O1063     Eu1083   2.372       .  S
O1064      C1087   1.286       .  A
O1064     Eu1080   2.417   1_565  S
O1065      C1088   1.289       .  A
O1065     Eu1081   2.453       .  S
O1066      C1089   1.279       .  A
O1066     Eu1082   2.393       .  S
O1067      C1090   1.303       .  A
O1067     Eu1083   2.519       .  S
O1068      C1091   1.303       .  A
O1068     Eu1083   2.524       .  S
O1069      C1092   1.285       .  A
O1069     Eu1082   2.433       .  S
O1070      C1093   1.275       .  A
O1070     Eu1084   2.374       .  S
O1071      C1094   1.279       .  A
O1072      C1093   1.299       .  A
O1072     Eu1082   2.508       .  S
O1073      C1094   1.304       .  A
O1073     Eu1083   2.523       .  S
O1074      C1089   1.305       .  A
O1074     Eu1080   2.539   1_565  S
O1075      C1092   1.296       .  A
O1075     Eu1081   2.490       .  S
O1076      C1091   1.284       .  A
O1077      C1090   1.288       .  A
O1078      C1087   1.286       .  A
O1078     Eu1084   2.444       .  S
O1079      C1088   1.286       .  A
O1079     Eu1084   2.425       .  S
Eu1080     O1086   2.347   1_545  S
Eu1081     O1096   2.351       .  S
Eu1082     O1096   2.334       .  S
Eu1082     O1086   2.344       .  S
Eu1083     O1085   2.352       .  S
Eu1083     O1098   2.360       .  S
Eu1084     O1096   2.352       .  S
Eu1084     O1086   2.342       .  S
C1089      C1182   1.480       .  S
C1090      C1178   1.486       .  S
C1091      C1170   1.481       .  S
C1092      C1174   1.478       .  S
C1093      C1161   1.461       .  S
C1094      C1165   1.476       .  S
H1095      O1096   0.966       .  S
H1097      O1098   0.965       .  S
O1099      C1110   1.298   1_554  A
O1099     Eu1135   2.495       .  S
O1100      C1111   1.293       .  A
O1100     Eu1134   2.458       .  S
O1101      C1112   1.283       .  A
O1102      C1113   1.293       .  A
O1102     Eu1107   2.463       .  S
O1103      C1113   1.282       .  A
O1103     Eu1137   2.421       .  S
O1104      C1112   1.306       .  A
O1104     Eu1136   2.541       .  S
O1105      C1111   1.286       .  A
O1105     Eu1107   2.437       .  S
O1106      C1110   1.287       .  A
O1106     Eu1107   2.428       .  S
Eu1107     O1117   2.360       .  S
Eu1107     O1108   2.341       .  S
O1108     Eu1137   2.333       .  S
O1108     Eu1134   2.324       .  S
O1109     Eu1136   2.363       .  S
C1112      C1190   1.492       .  S
C1113      C1194   1.466       .  S
H1114      O1115   0.965       .  S
O1115     Eu1136   2.358       .  S
H1116      O1117   0.966       .  S
O1117     Eu1135   2.355   1_556  S
O1117     Eu1137   2.339       .  S
O1118      C1141   1.285       .  A
O1118     Eu1134   2.430       .  S
O1119      C1142   1.298       .  A
O1119     Eu1135   2.487       .  S
O1120      C1143   1.293       .  A
O1120     Eu1136   2.475       .  S
O1121      C1144   1.276       .  A
O1121     Eu1137   2.392       .  S
O1122      C1145   1.276       .  A
O1122     Eu1137   2.389       .  S
O1123      C1146   1.295       .  A
O1123     Eu1136   2.474       .  S
O1124      C1147   1.289       .  A
O1125      C1148   1.299       .  A
O1125     Eu1138   2.509   1_556  S
O1126      C1147   1.303       .  A
O1126     Eu1136   2.522       .  S
O1127      C1148   1.280       .  A
O1127     Eu1137   2.404       .  S
O1128      C1143   1.291       .  A
O1129      C1146   1.296       .  A
O1130      C1145   1.301       .  A
O1130     Eu1135   2.518   1_556  S
O1131      C1144   1.297       .  A
O1131     Eu1134   2.486       .  S
O1132      C1141   1.300   1_554  A
O1132     Eu1138   2.494       .  S
O1133      C1142   1.291       .  A
O1133     Eu1138   2.458       .  S
Eu1134     O1152   2.342       .  S
Eu1135     O1139   2.355   1_554  S
Eu1136     O1150   2.377       .  S
Eu1136     O1140   2.368       .  S
Eu1137     O1139   2.338       .  S
Eu1137     O1152   2.343       .  S
Eu1138     O1139   2.368   1_554  S
Eu1138     O1152   2.360   1_554  S
C1143      C1158   1.487       .  S
C1144      C1162   1.467       .  S
C1145      C1166   1.473       .  S
C1146      C1154   1.495       .  S
C1147      C1186   1.487       .  S
C1148      C1198   1.470       .  S
H1149      O1150   0.966       .  S
H1151      O1152   0.966       .  S
C1153      C1154   1.352       .  D
C1153      H1155   1.087       .  S
C1154      H1156   1.086       .  S
C1157      C1158   1.350       .  D
C1157      H1159   1.087       .  S
C1158      H1160   1.086       .  S
C1161      C1162   1.328       .  D
C1161      H1163   1.088       .  S
C1162      H1164   1.087       .  S
C1165      C1166   1.329       .  D
C1165      H1167   1.087       .  S
C1166      H1168   1.088       .  S
C1169      C1170   1.337       .  D
C1169      H1171   1.087       .  S
C1170      H1172   1.088       .  S
C1173      C1174   1.342       .  D
C1173      H1175   1.087       .  S
C1174      H1176   1.087       .  S
C1177      C1178   1.341       .  D
C1177      H1179   1.087       .  S
C1178      H1180   1.087       .  S
C1181      C1182   1.334       .  D
C1181      H1183   1.087       .  S
C1182      H1184   1.088       .  S
C1185      C1186   1.344       .  D
C1185      H1187   1.086       .  S
C1186      H1188   1.087       .  S
C1189      C1190   1.337       .  D
C1189      H1191   1.087       .  S
C1190      H1192   1.087       .  S
C1193      C1194   1.336       .  D
C1193      H1195   1.087       .  S
C1194      H1196   1.087       .  S
C1197      C1198   1.334       .  D
C1197      H1199   1.087       .  S
C1198      H1200   1.088       .  S
C1201      C1202   1.347       .  D
C1201      H1203   1.087       .  S
C1205      C1206   1.352       .  D
C1206      H1208   1.086       .  S
C1209      C1210   1.343       .  D
C1209      H1211   1.087       .  S
C1213      C1214   1.349       .  D
C1213      H1215   1.087       .  S
C1217      C1218   1.334       .  D
C1218      H1220   1.087       .  S
C1221      C1222   1.343       .  D
C1221      H1223   1.087       .  S
C1225      C1226   1.342       .  D
C1225      H1227   1.087       .  S
C1229      C1230   1.345       .  D
C1229      H1231   1.087       .  S
C1233      C1234   1.330       .  D
C1233      H2483   1.088       .  S
C1234      H1236   1.087   1_655  S
H1235      C2481   1.087       .  S
C1237      C1238   1.332   1_655  D
C1237      H2487   1.088       .  S
C1238      H1240   1.088       .  S
H1239      C2485   1.087       .  S
C1241      C1242   1.329   1_455  D
C1241      H1243   1.087       .  S
C1242      H2492   1.088       .  S
H1244      C2490   1.087       .  S
C1245      C1246   1.340       .  D
C1245      H1247   1.087       .  S
C1246      H2496   1.087       .  S
H1248      C2494   1.087       .  S
O1249      C1260   1.298       .  A
O1249     Eu1285   2.485       .  S
O1250      C1261   1.296       .  A
O1250     Eu1284   2.481       .  S
O1251      C1262   1.287       .  A
O1251     Eu1257   2.440       .  S
O1252      C1263   1.299       .  A
O1253      C1263   1.291       .  A
O1253     Eu1287   2.454   1_545  S
O1254      C1262   1.297       .  A
O1254     Eu1286   2.494   1_545  S
O1255      C1261   1.273       .  A
O1255     Eu1569   2.375       .  S
O1256      C1260   1.279       .  A
O1256     Eu1257   2.399   1_554  S
Eu1257     O1567   2.473       .  S
Eu1257     O1259   2.355   1_556  S
Eu1257     O1577   2.324       .  S
O1258     Eu1599   2.350   1_545  S
O1259     Eu1285   2.351       .  S
O1259     Eu1286   2.345   1_544  S
C1260      C1557   1.461       .  S
C1261      C1545   1.457       .  S
C1262      C1526   1.482       .  S
C1263      C1517   1.484       .  S
H1264      O1265   0.966       .  S
O1265     Eu1569   2.326       .  S
O1265     Eu1598   2.337       .  S
O1265     Eu1284   2.335       .  S
H1266      O1267   0.966       .  S
O1267     Eu1287   2.373   1_544  S
O1268      C1291   1.286       .  A
O1268     Eu1908   2.441       .  S
O1269      C1292   1.275       .  A
O1269     Eu1909   2.370       .  S
O1270      C1293   1.297       .  A
O1270     Eu1598   2.484       .  S
O1271      C1294   1.312   1_565  A
O1271     Eu1599   2.568       .  S
O1272      C1295   1.305       .  A
O1272     Eu1287   2.536   1_554  S
O1273      C1296   1.288   1_565  A
O1273     Eu1286   2.446   1_554  S
O1274      C1297   1.294       .  A
O1274     Eu1288   2.475       .  S
O1275      C1298   1.294       .  A
O1276      C1297   1.288       .  A
O1276     Eu1910   2.449       .  S
O1277      C1298   1.293       .  A
O1277     Eu1911   2.467       .  S
O1278      C1293   1.280       .  A
O1278     Eu1284   2.399       .  S
O1279      C1296   1.296       .  A
O1279     Eu1285   2.481       .  S
O1280      C1295   1.293   1_545  A
O1281      C1294   1.281       .  A
O1282      C1291   1.295       .  A
O1282     Eu1600   2.477       .  S
O1283      C1292   1.305       .  A
O1283     Eu1288   2.534   1_554  S
Eu1284     O1892   2.444   1_545  S
Eu1284     O1914   2.355   1_545  S
Eu1285     O1893   2.497   1_545  S
Eu1285     O1924   2.348   1_545  S
Eu1286     O1582   2.444       .  S
Eu1286     O1900   2.476       .  S
Eu1286     O1577   2.350   1_565  S
Eu1286     O1924   2.352   1_556  S
Eu1286     O2226   2.354       .  S
Eu1287     O1583   2.565       .  S
Eu1287     O1901   2.475   1_556  S
Eu1287     O1570   2.361   1_565  S
Eu1287     O1913   2.362   1_556  S
Eu1287     O2238   2.350       .  S
Eu1288     O1594   2.509       .  S
Eu1288     O1300   2.347   1_556  S
Eu1288     O1602   2.354       .  S
O1289     Eu1911   2.349       .  S
O1290     Eu1908   2.338       .  S
O1290     Eu2222   2.350       .  S
O1290     Eu1600   2.355       .  S
C1291      C1550   1.482       .  S
C1292      C1553   1.470       .  S
C1293      C1534   1.464       .  S
C1294      C1529   1.494       .  S
C1295      C1541   1.506       .  S
C1296      C1538   1.481   1_545  S
C1297      C1521   1.480       .  S
C1298      C1513   1.483       .  S
H1299      O1300   0.965       .  S
O1300     Eu1909   2.362       .  S
O1300     Eu1910   2.338   1_554  S
H1301      O1302   0.966       .  S
O1302     Eu2223   2.356       .  S
O1303      C1314   1.296       .  A
O1303     Eu1339   2.484       .  S
O1304      C1315   1.298       .  A
O1304     Eu1338   2.498       .  S
O1305      C1316   1.294       .  A
O1305     Eu1311   2.477       .  S
O1306      C1317   1.290       .  A
O1307      C1317   1.286       .  A
O1307     Eu1341   2.436       .  S
O1308      C1316   1.288       .  A
O1308     Eu1340   2.428       .  S
O1309      C1315   1.272       .  A
O1309     Eu1311   2.353       .  S
O1310      C1314   1.274       .  A
O1310     Eu1311   2.375       .  S
Eu1311     O1313   2.344       .  S
Eu1311     O1319   2.364       .  S
O1312     Eu1341   2.351       .  S
O1313     Eu1339   2.320       .  S
O1313     Eu1340   2.368       .  S
C1314      C1558   1.460       .  S
C1315      C1546   1.454       .  S
C1316      C1489   1.471       .  S
C1317      C1481   1.466       .  S
H1318      O1319   0.966       .  S
O1319     Eu1340   2.354       .  S
O1319     Eu1338   2.319       .  S
H1320      O1321   0.966       .  S
O1321     Eu1341   2.360       .  S
O1322      C1345   1.285       .  A
O1322     Eu1338   2.429       .  S
O1323      C1346   1.277       .  A
O1323     Eu1339   2.386       .  S
O1324      C1347   1.300       .  A
O1324     Eu1340   2.510       .  S
O1325      C1348   1.286       .  A
O1325     Eu1341   2.442       .  S
O1326      C1349   1.287       .  A
O1326     Eu1341   2.435       .  S
O1327      C1350   1.291       .  A
O1327     Eu1340   2.458       .  S
O1328      C1351   1.294       .  A
O1328     Eu1342   2.469       .  S
O1329      C1352   1.292       .  A
O1330      C1351   1.291       .  A
O1330     Eu1340   2.457       .  S
O1331      C1352   1.291       .  A
O1331     Eu1341   2.455       .  S
O1332      C1347   1.284       .  A
O1332     Eu1338   2.430       .  S
O1333      C1350   1.296       .  A
O1333     Eu1339   2.489       .  S
O1334      C1349   1.294       .  A
O1335      C1348   1.290       .  A
O1336      C1345   1.298       .  A
O1336     Eu1342   2.498       .  S
O1337      C1346   1.305       .  A
O1337     Eu1342   2.524       .  S
Eu1338     O1344   2.344       .  S
Eu1339     O1354   2.366       .  S
Eu1340     O1354   2.361       .  S
Eu1340     O1344   2.331       .  S
Eu1341     O1343   2.348       .  S
Eu1341     O1356   2.349       .  S
Eu1342     O1354   2.357       .  S
Eu1342     O1344   2.367       .  S
C1345      C1549   1.476       .  S
C1346      C1554   1.473       .  S
C1347      C1505   1.488       .  S
C1348      C1509   1.469       .  S
C1349      C1497   1.477       .  S
C1350      C1501   1.487       .  S
C1351      C1493   1.479       .  S
C1352      C1485   1.480       .  S
H1353      O1354   0.965       .  S
H1355      O1356   0.966       .  S
O1357      C1368   1.288       .  A
O1357     Eu1393   2.438       .  S
O1358      C1369   1.285       .  A
O1358     Eu1392   2.428       .  S
O1359      C1370   1.296       .  A
O1359     Eu1365   2.484       .  S
O1360      C1371   1.284       .  A
O1360     Eu1989   2.425   1_545  S
O1361      C1371   1.294       .  A
O1361     Eu1395   2.471       .  S
O1362      C1370   1.289       .  A
O1362     Eu1394   2.452       .  S
O1363      C1369   1.296       .  A
O1363     Eu1365   2.478       .  S
O1364      C1368   1.293       .  A
O1364     Eu1365   2.474       .  S
Eu1365     O1984   2.444       .  S
Eu1365     O1999   2.367       .  S
Eu1365     O1367   2.347       .  S
Eu1365     O1990   2.358       .  S
Eu1365     O1373   2.348       .  S
O1366     Eu1989   2.354   1_545  S
O1366     Eu1395   2.338       .  S
O1366     Eu2016   2.357       .  S
O1367     Eu1393   2.353       .  S
O1367     Eu1394   2.355       .  S
C1368      C2166   1.476       .  S
C1369      C2161   1.473       .  S
C1370      C1469   1.484       .  S
C1371      C1465   1.469       .  S
H1372      O1373   0.965       .  S
O1373     Eu1394   2.356       .  S
O1373     Eu1392   2.364       .  S
H1374      O1375   0.965       .  S
O1375     Eu1989   2.361   1_545  S
O1375     Eu2017   2.371   1_545  S
O1375     Eu1395   2.343       .  S
O1376      C1399   1.292       .  A
O1376     Eu1392   2.461       .  S
O1377      C1400   1.287       .  A
O1377     Eu1393   2.443       .  S
O1378      C1401   1.293       .  A
O1378     Eu1394   2.461       .  S
O1379      C1402   1.292       .  A
O1379     Eu1395   2.468       .  S
O1380      C1403   1.291       .  A
O1380     Eu1395   2.451       .  S
O1381      C1404   1.292       .  A
O1381     Eu1394   2.464       .  S
O1382      C1405   1.285       .  A
O1382     Eu1396   2.434       .  S
O1383      C1406   1.296       .  A
O1383     Eu2020   2.483       .  S
O1384      C1405   1.293       .  A
O1384     Eu1394   2.464       .  S
O1385      C1406   1.286       .  A
O1385     Eu1395   2.429       .  S
O1386      C1401   1.293       .  A
O1386     Eu1392   2.475       .  S
O1387      C1404   1.292       .  A
O1387     Eu1393   2.463       .  S
O1388      C1403   1.287       .  A
O1388     Eu2017   2.436   1_545  S
O1389      C1402   1.287       .  A
O1389     Eu2016   2.430       .  S
O1390      C1399   1.285       .  A
O1390     Eu1396   2.436       .  S
O1391      C1400   1.289       .  A
O1391     Eu1396   2.445       .  S
Eu1392     O2013   2.482       .  S
Eu1392     O1990   2.357       .  S
Eu1392     O2034   2.346       .  S
Eu1392     O1398   2.349       .  S
Eu1393     O2012   2.460       .  S
Eu1393     O1999   2.357       .  S
Eu1393     O2021   2.351       .  S
Eu1393     O1408   2.352       .  S
Eu1394     O1408   2.351       .  S
Eu1394     O1398   2.353       .  S
Eu1395     O1397   2.359       .  S
Eu1395     O1410   2.356       .  S
Eu1396     O2007   2.412       .  S
Eu1396     O2021   2.350       .  S
Eu1396     O1408   2.341       .  S
Eu1396     O2034   2.353       .  S
Eu1396     O1398   2.343       .  S
O1397     Eu2017   2.349   1_545  S
O1397     Eu2020   2.350       .  S
C1399      C2157   1.472       .  S
C1400      C2154   1.468       .  S
C1401      C1494   1.482       .  S
C1402      C1490   1.471       .  S
C1403      C1482   1.464       .  S
C1404      C1486   1.480       .  S
C1405      C1473   1.470       .  S
C1406      C1477   1.474       .  S
H1407      O1408   0.964       .  S
H1409      O1410   0.965       .  S
O1410     Eu2016   2.339       .  S
O1410     Eu2020   2.354       .  S
O1411      C1422   1.287       .  A
O1411     Eu1447   2.444       .  S
O1412      C1423   1.296       .  A
O1412     Eu1446   2.483       .  S
O1413      C1424   1.293       .  A
O1413     Eu1731   2.471   1_554  S
O1414      C1425   1.302       .  A
O1414     Eu1419   2.514       .  S
O1415      C1425   1.287       .  A
O1415     Eu1449   2.436       .  S
O1416      C1424   1.295       .  A
O1416     Eu1448   2.480       .  S
O1417      C1423   1.290       .  A
O1417     Eu1419   2.455       .  S
O1418      C1422   1.292       .  A
O1418     Eu1419   2.451       .  S
Eu1419     O1725   2.537       .  S
Eu1419     O1429   2.370       .  S
Eu1419     O1733   2.351       .  S
Eu1419     O1420   2.360       .  S
Eu1419     O1739   2.360       .  S
O1420     Eu1449   2.362       .  S
O1420     Eu1446   2.340       .  S
O1421     Eu1731   2.355   1_554  S
O1421     Eu1759   2.365       .  S
O1421     Eu1448   2.366       .  S
C1422      C1837   1.469       .  S
C1423      C1834   1.485       .  S
C1424      C1502   1.489       .  S
C1425      C1506   1.487       .  S
H1426      O1427   0.965       .  S
O1427     Eu1731   2.369   1_554  S
O1427     Eu1448   2.345       .  S
O1427     Eu1758   2.359   1_554  S
H1428      O1429   0.966       .  S
O1429     Eu1447   2.339       .  S
O1429     Eu1449   2.344       .  S
O1430      C1453   1.292       .  A
O1430     Eu1446   2.468       .  S
O1431      C1454   1.291       .  A
O1431     Eu1447   2.458       .  S
O1432      C1455   1.296       .  A
O1432     Eu1448   2.485       .  S
O1433      C1456   1.285       .  A
O1433     Eu1449   2.432       .  S
O1434      C1457   1.293       .  A
O1434     Eu1449   2.467       .  S
O1435      C1458   1.285       .  A
O1435     Eu1448   2.428       .  S
O1436      C1459   1.288       .  A
O1436     Eu1762   2.438       .  S
O1437      C1460   1.287       .  A
O1437     Eu1450   2.438       .  S
O1438      C1459   1.294       .  A
O1438     Eu1448   2.478       .  S
O1439      C1460   1.291       .  A
O1439     Eu1449   2.454       .  S
O1440      C1455   1.289       .  A
O1440     Eu1758   2.452   1_554  S
O1441      C1458   1.297       .  A
O1441     Eu1759   2.479       .  S
O1442      C1457   1.285       .  A
O1442     Eu1447   2.436       .  S
O1443      C1456   1.293       .  A
O1443     Eu1446   2.464       .  S
O1444      C1453   1.292       .  A
O1444     Eu1450   2.456       .  S
O1445      C1454   1.289       .  A
O1445     Eu1450   2.454       .  S
Eu1446     O1752   2.427       .  S
Eu1446     O1739   2.363       .  S
Eu1446     O1464   2.349       .  S
Eu1446     O1764   2.361       .  S
Eu1447     O1753   2.389       .  S
Eu1447     O1733   2.355       .  S
Eu1447     O1451   2.336       .  S
Eu1447     O1774   2.351       .  S
Eu1448     O1462   2.368       .  S
Eu1448     O1452   2.345       .  S
Eu1449     O1451   2.344       .  S
Eu1449     O1464   2.350       .  S
Eu1450     O1748   2.461       .  S
Eu1450     O1451   2.361       .  S
Eu1450     O1774   2.346       .  S
Eu1450     O1464   2.357       .  S
Eu1450     O1764   2.346       .  S
O1452     Eu1758   2.356   1_554  S
O1452     Eu1762   2.357       .  S
C1453      C1826   1.481       .  S
C1454      C1830   1.475       .  S
C1455      C1470   1.485       .  S
C1456      C1474   1.471       .  S
C1457      C1478   1.475       .  S
C1458      C1466   1.470       .  S
C1459      C1498   1.477       .  S
C1460      C1510   1.465       .  S
H1461      O1462   0.965       .  S
O1462     Eu1759   2.359       .  S
O1462     Eu1762   2.350       .  S
H1463      O1464   0.965       .  S
C1465      C1466   1.337       .  D
C1465      H1467   1.087       .  S
C1466      H1468   1.087       .  S
C1469      C1470   1.345       .  D
C1469      H1471   1.087       .  S
C1470      H1472   1.087       .  S
C1473      C1474   1.339       .  D
C1473      H1475   1.087       .  S
C1474      H1476   1.087       .  S
C1477      C1478   1.339       .  D
C1477      H1479   1.087       .  S
C1478      H1480   1.087       .  S
C1481      C1482   1.340       .  D
C1481      H1483   1.087       .  S
C1482      H1484   1.087       .  S
C1485      C1486   1.348       .  D
C1485      H1487   1.086       .  S
C1486      H1488   1.087       .  S
C1489      C1490   1.348       .  D
C1489      H1491   1.087       .  S
C1490      H1492   1.087       .  S
C1493      C1494   1.347       .  D
C1493      H1495   1.087       .  S
C1494      H1496   1.087       .  S
C1497      C1498   1.351       .  D
C1497      H1499   1.086       .  S
C1498      H1500   1.087       .  S
C1501      C1502   1.348       .  D
C1501      H1503   1.087       .  S
C1502      H1504   1.087       .  S
C1505      C1506   1.340       .  D
C1505      H1507   1.087       .  S
C1506      H1508   1.087       .  S
C1509      C1510   1.341       .  D
C1509      H1511   1.087       .  S
C1510      H1512   1.087       .  S
C1513      C1514   1.350       .  D
C1513      H1515   1.087       .  S
C1514      C1765   1.484       .  S
C1514      H1828   1.087       .  S
H1516      C1826   1.087       .  S
C1517      C1518   1.345   1_556  D
C1517      H1831   1.087       .  S
C1518      C1766   1.487       .  S
C1518      H1520   1.087       .  S
H1519      C1829   1.087       .  S
C1521      C1522   1.344       .  D
C1521      H1523   1.087       .  S
C1522      C1735   1.483       .  S
C1522      H1836   1.087       .  S
H1524      C1834   1.087       .  S
C1525      C1734   1.487       .  S
C1525      C1526   1.344       .  D
C1525      H1527   1.087       .  S
C1526      H1840   1.087       .  S
H1528      C1838   1.087       .  S
C1529      C1530   1.332   1_545  D
C1529      H2155   1.087       .  S
C1530      C2024   1.491       .  S
C1530      H1532   1.087       .  S
H1531      C2153   1.087       .  S
C1533      C2023   1.463       .  S
C1533      C1534   1.332       .  D
C1533      H1535   1.087       .  S
C1534      H2160   1.087       .  S
H1536      C2158   1.087       .  S
C1537      C1993   1.478       .  S
C1537      C1538   1.341   1_545  D
C1537      H1539   1.087       .  S
C1538      H2164   1.087       .  S
H1540      C2162   1.087       .  S
C1541      C1542   1.350       .  D
C1541      H1543   1.087   1_565  S
C1542      C1992   1.506       .  S
C1542      H2168   1.087       .  S
H1544      C2166   1.087       .  S
C1545      C1546   1.323       .  D
C1546      H1548   1.088       .  S
C1549      C1550   1.339       .  D
C1550      H1552   1.087       .  S
C1553      C1554   1.325       .  D
C1553      H1555   1.088       .  S
C1557      C1558   1.327       .  D
C1557      H1559   1.087       .  S
O1561      C1572   1.303       .  A
O1561     Eu1597   2.532       .  S
O1562      C1573   1.279       .  A
O1562     Eu1596   2.397   1_545  S
O1563      C1574   1.284       .  A
O1563     Eu1569   2.432       .  S
O1564      C1575   1.291       .  A
O1565      C1575   1.288       .  A
O1565     Eu1599   2.446   1_545  S
O1566      C1574   1.290       .  A
O1566     Eu1598   2.449       .  S
O1567      C1573   1.294       .  A
O1568      C1572   1.274       .  A
O1568     Eu1569   2.378       .  S
Eu1569     O1571   2.321       .  S
O1571     Eu1597   2.350       .  S
O1571     Eu1598   2.359       .  S
C1572      C1869   1.478       .  S
C1573      C1857   1.462       .  S
C1574      C1838   1.465       .  S
C1575      C1829   1.474       .  S
H1576      O1577   0.966       .  S
O1577     Eu1596   2.345   1_545  S
H1578      O1579   0.965       .  S
O1579     Eu1599   2.370   1_545  S
O1580      C1603   1.277       .  A
O1580     Eu2220   2.386       .  S
O1581      C1604   1.298       .  A
O1581     Eu2221   2.493       .  S
O1582      C1605   1.291       .  A
O1583      C1606   1.310       .  A
O1584      C1607   1.306       .  A
O1584     Eu1599   2.537       .  S
O1585      C1608   1.285       .  A
O1585     Eu1598   2.423       .  S
O1586      C1609   1.296       .  A
O1586     Eu1600   2.481       .  S
O1587      C1610   1.291       .  A
O1588      C1609   1.291       .  A
O1588     Eu2222   2.461       .  S
O1589      C1610   1.293       .  A
O1589     Eu2223   2.470       .  S
O1590      C1605   1.286       .  A
O1590     Eu1596   2.439       .  S
O1591      C1608   1.300       .  A
O1591     Eu1597   2.494       .  S
O1592      C1607   1.288       .  A
O1593      C1606   1.277       .  A
O1594      C1603   1.302       .  A
O1595      C1604   1.287       .  A
O1595     Eu1600   2.443       .  S
Eu1596     O2204   2.416       .  S
Eu1596     O2226   2.330       .  S
Eu1597     O2205   2.505   1_545  S
Eu1597     O2236   2.369   1_545  S
Eu1598     O2212   2.439   1_545  S
Eu1598     O2236   2.368   1_545  S
Eu1598     O1914   2.337   1_545  S
Eu1599     O2213   2.444       .  S
Eu1599     O2225   2.364       .  S
Eu1599     O1926   2.358       .  S
Eu1600     O1612   2.369       .  S
O1601     Eu2223   2.347       .  S
O1602     Eu2220   2.348       .  S
O1602     Eu1910   2.317       .  S
C1603      C1862   1.464       .  S
C1604      C1865   1.487       .  S
C1605      C1846   1.466       .  S
C1606      C1841   1.490       .  S
C1607      C1853   1.492       .  S
C1608      C1850   1.473       .  S
C1609      C1833   1.485       .  S
C1610      C1825   1.480       .  S
H1611      O1612   0.965       .  S
O1612     Eu2221   2.350       .  S
O1612     Eu2222   2.367       .  S
H1613      O1614   0.967       .  S
O1614     Eu1911   2.348   1_556  S
O1615      C1626   1.306       .  A
O1615     Eu1651   2.534       .  S
O1616      C1627   1.278       .  A
O1616     Eu1650   2.403       .  S
O1617      C1628   1.294       .  A
O1617     Eu1623   2.478       .  S
O1618      C1629   1.298       .  A
O1619      C1629   1.286       .  A
O1619     Eu1653   2.437       .  S
O1620      C1628   1.296       .  A
O1620     Eu1652   2.482       .  S
O1621      C1627   1.291       .  A
O1621     Eu1623   2.460       .  S
O1622      C1626   1.277       .  A
O1622     Eu1623   2.387       .  S
Eu1623     O1625   2.360       .  S
Eu1623     O1631   2.340       .  S
O1624     Eu1653   2.342       .  S
O1625     Eu1651   2.360       .  S
O1625     Eu1652   2.373       .  S
C1626      C1870   1.480       .  S
C1627      C1858   1.463       .  S
C1628      C1801   1.489       .  S
C1629      C1793   1.488       .  S
H1630      O1631   0.967       .  S
O1631     Eu1652   2.381       .  S
O1631     Eu1650   2.333       .  S
H1632      O1633   0.966       .  S
O1633     Eu1653   2.338       .  S
O1634      C1657   1.272       .  A
O1634     Eu1650   2.364       .  S
O1635      C1658   1.299       .  A
O1635     Eu1651   2.504       .  S
O1636      C1659   1.300       .  A
O1636     Eu1652   2.511       .  S
O1637      C1660   1.289       .  A
O1637     Eu1653   2.451       .  S
O1638      C1661   1.294       .  A
O1638     Eu1653   2.466       .  S
O1639      C1662   1.304       .  A
O1639     Eu1652   2.516       .  S
O1640      C1663   1.280       .  A
O1640     Eu1654   2.406       .  S
O1641      C1664   1.296       .  A
O1642      C1663   1.303       .  A
O1642     Eu1652   2.529       .  S
O1643      C1664   1.281       .  A
O1643     Eu1653   2.408       .  S
O1644      C1659   1.281       .  A
O1644     Eu1650   2.409       .  S
O1645      C1662   1.288       .  A
O1645     Eu1651   2.442       .  S
O1646      C1661   1.288       .  A
O1647      C1660   1.287       .  A
O1648      C1657   1.300       .  A
O1648     Eu1654   2.510       .  S
O1649      C1658   1.286       .  A
O1649     Eu1654   2.437       .  S
Eu1650     O1656   2.350       .  S
Eu1651     O1666   2.387       .  S
Eu1652     O1666   2.361       .  S
Eu1652     O1656   2.357       .  S
Eu1653     O1655   2.346       .  S
Eu1653     O1668   2.358       .  S
Eu1654     O1666   2.364       .  S
Eu1654     O1656   2.331       .  S
C1657      C1861   1.460       .  S
C1658      C1866   1.481       .  S
C1659      C1817   1.473       .  S
C1660      C1821   1.463       .  S
C1661      C1809   1.474       .  S
C1662      C1813   1.492       .  S
C1663      C1805   1.481       .  S
C1664      C1797   1.465       .  S
H1665      O1666   0.966       .  S
H1667      O1668   0.965       .  S
O1669      C1680   1.294       .  A
O1669     Eu1705   2.472       .  S
O1670      C1681   1.289       .  A
O1670     Eu1704   2.448       .  S
O1671      C1682   1.303       .  A
O1671     Eu1677   2.522       .  S
O1672      C1683   1.303       .  A
O1672     Eu2301   2.512       .  S
O1673      C1683   1.282       .  A
O1673     Eu1707   2.411       .  S
O1674      C1682   1.284       .  A
O1674     Eu1706   2.420       .  S
O1675      C1681   1.299       .  A
O1675     Eu1677   2.499       .  S
O1676      C1680   1.292       .  A
O1676     Eu1677   2.462       .  S
Eu1677     O2296   2.496       .  S
Eu1677     O2311   2.382       .  S
Eu1677     O1679   2.361       .  S
Eu1677     O2302   2.358       .  S
Eu1677     O1685   2.348       .  S
O1678     Eu2301   2.335       .  S
O1678     Eu1707   2.362       .  S
O1678     Eu2328   2.353       .  S
O1679     Eu1705   2.356       .  S
O1679     Eu1706   2.352       .  S
C1680      C2478   1.483       .  S
C1681      C2473   1.489       .  S
C1682      C1781   1.484       .  S
C1683      C1777   1.482       .  S
H1684      O1685   0.965       .  S
O1685     Eu1706   2.372       .  S
O1685     Eu1704   2.359       .  S
H1686      O1687   0.967       .  S
O1687     Eu2301   2.370       .  S
O1687     Eu2329   2.380   1_545  S
O1687     Eu1707   2.365       .  S
O1688      C1711   1.294       .  A
O1688     Eu1704   2.467       .  S
O1689      C1712   1.290       .  A
O1689     Eu1705   2.458       .  S
O1690      C1713   1.284       .  A
O1690     Eu1706   2.425       .  S
O1691      C1714   1.295       .  A
O1691     Eu1707   2.484       .  S
O1692      C1715   1.300       .  A
O1692     Eu1707   2.504       .  S
O1693      C1716   1.296       .  A
O1693     Eu1706   2.478       .  S
O1694      C1717   1.278       .  A
O1694     Eu1708   2.394       .  S
O1695      C1718   1.283       .  A
O1695     Eu2332   2.427   1_545  S
O1696      C1717   1.294       .  A
O1696     Eu1706   2.479       .  S
O1697      C1718   1.296       .  A
O1697     Eu1707   2.474       .  S
O1698      C1713   1.304       .  A
O1698     Eu1704   2.522       .  S
O1699      C1716   1.282       .  A
O1699     Eu1705   2.416       .  S
O1700      C1715   1.291       .  A
O1700     Eu2329   2.456   1_545  S
O1701      C1714   1.294       .  A
O1701     Eu2328   2.471       .  S
O1702      C1711   1.286       .  A
O1702     Eu1708   2.442       .  S
O1703      C1712   1.290       .  A
O1703     Eu1708   2.449       .  S
Eu1704     O2325   2.528       .  S
Eu1704     O2302   2.351       .  S
Eu1704     O2346   2.364       .  S
Eu1704     O1710   2.364       .  S
Eu1705     O2324   2.460       .  S
Eu1705     O2311   2.340       .  S
Eu1705     O2333   2.347       .  S
Eu1705     O1720   2.363       .  S
Eu1706     O1720   2.325       .  S
Eu1706     O1710   2.347       .  S
Eu1707     O1709   2.340       .  S
Eu1707     O1722   2.358       .  S
Eu1708     O2319   2.376       .  S
Eu1708     O2333   2.344       .  S
Eu1708     O1720   2.337       .  S
Eu1708     O2346   2.350       .  S
Eu1708     O1710   2.341       .  S
O1709     Eu2329   2.361   1_545  S
O1709     Eu2332   2.351   1_545  S
C1711      C2469   1.473       .  S
C1712      C2466   1.473       .  S
C1713      C1806   1.485       .  S
C1714      C1802   1.492       .  S
C1715      C1794   1.491       .  S
C1716      C1798   1.469       .  S
C1717      C1785   1.463       .  S
C1718      C1789   1.475       .  S
H1719      O1720   0.965       .  S
H1721      O1722   0.966       .  S
O1722     Eu2328   2.355       .  S
O1722     Eu2332   2.335   1_545  S
O1723      C1734   1.290       .  A
O1723     Eu1759   2.458   1_556  S
O1724      C1735   1.297       .  A
O1724     Eu1758   2.482       .  S
O1725      C1736   1.305       .  A
O1726      C1737   1.298       .  A
O1726     Eu1731   2.489       .  S
O1727      C1737   1.283       .  A
O1727     Eu1761   2.425       .  S
O1728      C1736   1.283       .  A
O1728     Eu1760   2.414       .  S
O1729      C1735   1.291       .  A
O1729     Eu1731   2.456       .  S
O1730      C1734   1.297       .  A
O1730     Eu1731   2.483       .  S
Eu1731     O1741   2.352       .  S
Eu1731     O1732   2.354       .  S
O1732     Eu1761   2.341       .  S
O1732     Eu1758   2.351       .  S
O1733     Eu1760   2.353       .  S
C1736      C1814   1.488       .  S
C1737      C1818   1.480       .  S
H1738      O1739   0.966       .  S
O1739     Eu1760   2.367       .  S
H1740      O1741   0.967       .  S
O1741     Eu1759   2.362   1_556  S
O1741     Eu1761   2.349       .  S
O1742      C1765   1.294   1_556  A
O1742     Eu1758   2.480       .  S
O1743      C1766   1.296       .  A
O1743     Eu1759   2.477       .  S
O1744      C1767   1.302       .  A
O1744     Eu1760   2.516       .  S
O1745      C1768   1.282       .  A
O1745     Eu1761   2.417       .  S
O1746      C1769   1.280       .  A
O1746     Eu1761   2.409       .  S
O1747      C1770   1.303       .  A
O1747     Eu1760   2.527       .  S
O1748      C1771   1.292       .  A
O1749      C1772   1.288       .  A
O1749     Eu1762   2.452   1_556  S
O1750      C1771   1.287       .  A
O1750     Eu1760   2.439       .  S
O1751      C1772   1.285       .  A
O1751     Eu1761   2.418       .  S
O1752      C1767   1.285       .  A
O1753      C1770   1.278       .  A
O1754      C1769   1.297       .  A
O1754     Eu1759   2.495   1_556  S
O1755      C1768   1.295       .  A
O1755     Eu1758   2.469       .  S
O1756      C1765   1.292       .  A
O1756     Eu1762   2.458       .  S
O1757      C1766   1.290       .  A
O1757     Eu1762   2.460       .  S
Eu1758     O1776   2.355       .  S
Eu1759     O1763   2.342   1_554  S
Eu1760     O1774   2.350       .  S
Eu1760     O1764   2.347       .  S
Eu1761     O1763   2.333       .  S
Eu1761     O1776   2.344       .  S
Eu1762     O1763   2.339   1_554  S
Eu1762     O1776   2.352   1_554  S
C1767      C1782   1.486       .  S
C1768      C1786   1.467       .  S
C1769      C1790   1.468       .  S
C1770      C1778   1.474       .  S
C1771      C1810   1.470       .  S
C1772      C1822   1.464       .  S
H1773      O1774   0.965       .  S
H1775      O1776   0.966       .  S
C1777      C1778   1.332       .  D
C1777      H1779   1.087       .  S
C1778      H1780   1.088       .  S
C1781      C1782   1.338       .  D
C1781      H1783   1.087       .  S
C1782      H1784   1.087       .  S
C1785      C1786   1.332       .  D
C1785      H1787   1.088       .  S
C1786      H1788   1.087       .  S
C1789      C1790   1.334       .  D
C1789      H1791   1.087       .  S
C1790      H1792   1.088       .  S
C1793      C1794   1.345       .  D
C1793      H1795   1.087       .  S
C1794      H1796   1.087       .  S
C1797      C1798   1.333       .  D
C1797      H1799   1.087       .  S
C1798      H1800   1.087       .  S
C1801      C1802   1.350       .  D
C1801      H1803   1.087       .  S
C1802      H1804   1.086       .  S
C1805      C1806   1.335       .  D
C1805      H1807   1.088       .  S
C1806      H1808   1.087       .  S
C1809      C1810   1.341       .  D
C1809      H1811   1.087       .  S
C1810      H1812   1.087       .  S
C1813      C1814   1.339       .  D
C1813      H1815   1.087       .  S
C1814      H1816   1.087       .  S
C1817      C1818   1.335       .  D
C1817      H1819   1.088       .  S
C1818      H1820   1.087       .  S
C1821      C1822   1.345       .  D
C1821      H1823   1.087       .  S
C1822      H1824   1.087       .  S
C1825      C1826   1.347       .  D
C1825      H1827   1.087       .  S
C1829      C1830   1.344       .  D
C1830      H1832   1.087       .  S
C1833      C1834   1.346       .  D
C1833      H1835   1.087       .  S
C1837      C1838   1.339       .  D
C1837      H1839   1.087       .  S
C1841      C1842   1.330       .  D
C1841      H2467   1.088       .  S
C1842      C2336   1.491       .  S
C1842      H1844   1.087       .  S
H1843      C2465   1.087       .  S
C1845      C2335   1.462       .  S
C1845      C1846   1.337       .  D
C1845      H1847   1.087       .  S
C1846      H2472   1.087       .  S
H1848      C2470   1.087       .  S
C1849      C2305   1.473       .  S
C1849      C1850   1.335       .  D
C1849      H1851   1.087       .  S
C1850      H2476   1.087       .  S
H1852      C2474   1.087       .  S
C1853      C1854   1.342       .  D
C1853      H1855   1.087       .  S
C1854      C2304   1.495       .  S
C1854      H2480   1.087   1_565  S
H1856      C2478   1.087       .  S
C1857      C1858   1.332       .  D
C1858      H1860   1.087       .  S
C1861      C1862   1.323       .  D
C1862      H1864   1.088       .  S
C1865      C1866   1.341       .  D
C1865      H1867   1.087       .  S
C1869      C1870   1.328       .  D
C1869      H1871   1.088       .  S
O1873      C1884   1.287       .  A
O1873     Eu1909   2.449       .  S
O1874      C1885   1.290       .  A
O1874     Eu1908   2.454       .  S
O1875      C1886   1.307       .  A
O1875     Eu1881   2.543       .  S
O1876      C1887   1.303       .  A
O1877      C1887   1.289       .  A
O1877     Eu1911   2.453       .  S
O1878      C1886   1.279       .  A
O1878     Eu1910   2.388   1_554  S
O1879      C1885   1.287       .  A
O1879     Eu2193   2.441       .  S
O1880      C1884   1.291       .  A
O1880     Eu1881   2.457       .  S
Eu1881     O2191   2.428   1_554  S
Eu1881     O1883   2.348       .  S
Eu1881     O2201   2.366   1_554  S
O1882     Eu2223   2.357       .  S
O1883     Eu1909   2.325       .  S
O1883     Eu1910   2.371   1_554  S
C1884      C2181   1.475       .  S
C1885      C2169   1.471       .  S
C1886      C2150   1.479       .  S
C1887      C2141   1.496       .  S
H1888      O1889   0.966       .  S
O1889     Eu2193   2.359       .  S
O1889     Eu2222   2.351       .  S
O1889     Eu1908   2.331       .  S
H1890      O1891   0.966       .  S
O1891     Eu1911   2.366       .  S
O1892      C1915   1.288       .  A
O1893      C1916   1.298       .  A
O1894      C1917   1.292       .  A
O1894     Eu2222   2.465       .  S
O1895      C1918   1.288       .  A
O1895     Eu2223   2.450       .  S
O1896      C1919   1.287       .  A
O1896     Eu1911   2.434       .  S
O1897      C1920   1.284       .  A
O1897     Eu1910   2.423   1_554  S
O1898      C1921   1.279       .  A
O1898     Eu1912   2.393   1_556  S
O1899      C1922   1.284       .  A
O1900      C1921   1.296       .  A
O1901      C1922   1.297       .  A
O1902      C1917   1.283       .  A
O1902     Eu1908   2.426       .  S
O1903      C1920   1.295       .  A
O1903     Eu1909   2.480       .  S
O1904      C1919   1.293       .  A
O1905      C1918   1.290       .  A
O1906      C1915   1.291       .  A
O1906     Eu2224   2.452       .  S
O1907      C1916   1.285       .  A
O1907     Eu1912   2.427       .  S
Eu1910     O2206   2.464       .  S
Eu1910     O2201   2.355       .  S
Eu1911     O2207   2.452   1_554  S
Eu1911     O2194   2.345   1_554  S
Eu1912     O2218   2.507   1_554  S
Eu1912     O1924   2.363       .  S
Eu1912     O2226   2.329   1_554  S
O1914     Eu2224   2.344       .  S
C1915      C2174   1.468       .  S
C1916      C2177   1.476       .  S
C1917      C2158   1.469       .  S
C1918      C2153   1.469       .  S
C1919      C2165   1.476       .  S
C1920      C2162   1.470       .  S
C1921      C2145   1.459       .  S
C1922      C2137   1.472       .  S
H1923      O1924   0.965       .  S
H1925      O1926   0.965       .  S
O1927      C1938   1.289       .  A
O1927     Eu1963   2.452       .  S
O1928      C1939   1.290       .  A
O1928     Eu1962   2.446       .  S
O1929      C1940   1.296       .  A
O1929     Eu1935   2.487       .  S
O1930      C1941   1.306       .  A
O1931      C1941   1.286       .  A
O1931     Eu1965   2.429       .  S
O1932      C1940   1.294       .  A
O1932     Eu1964   2.469       .  S
O1933      C1939   1.289       .  A
O1933     Eu1935   2.450       .  S
O1934      C1938   1.294       .  A
O1934     Eu1935   2.465       .  S
Eu1935     O1937   2.361       .  S
Eu1935     O1943   2.367       .  S
O1936     Eu1965   2.364       .  S
O1937     Eu1963   2.355       .  S
O1937     Eu1964   2.363       .  S
C1938      C2182   1.477       .  S
C1939      C2170   1.471       .  S
C1940      C2113   1.491       .  S
C1941      C2105   1.495       .  S
H1942      O1943   0.965       .  S
O1943     Eu1964   2.343       .  S
O1943     Eu1962   2.339       .  S
H1944      O1945   0.966       .  S
O1945     Eu1965   2.353       .  S
O1946      C1969   1.289       .  A
O1946     Eu1962   2.457       .  S
O1947      C1970   1.296       .  A
O1947     Eu1963   2.483       .  S
O1948      C1971   1.294       .  A
O1948     Eu1964   2.470       .  S
O1949      C1972   1.287       .  A
O1949     Eu1965   2.441       .  S
O1950      C1973   1.293       .  A
O1950     Eu1965   2.466       .  S
O1951      C1974   1.283       .  A
O1951     Eu1964   2.418       .  S
O1952      C1975   1.291       .  A
O1952     Eu1966   2.450       .  S
O1953      C1976   1.278       .  A
O1954      C1975   1.289       .  A
O1954     Eu1964   2.455       .  S
O1955      C1976   1.294       .  A
O1955     Eu1965   2.477       .  S
O1956      C1971   1.282       .  A
O1956     Eu1962   2.424       .  S
O1957      C1974   1.300       .  A
O1957     Eu1963   2.499       .  S
O1958      C1973   1.292       .  A
O1959      C1972   1.295       .  A
O1960      C1969   1.288       .  A
O1960     Eu1966   2.434       .  S
O1961      C1970   1.286       .  A
O1961     Eu1966   2.438       .  S
Eu1962     O1968   2.334       .  S
Eu1963     O1978   2.341       .  S
Eu1964     O1978   2.366       .  S
Eu1964     O1968   2.340       .  S
Eu1965     O1967   2.339       .  S
Eu1965     O1980   2.350       .  S
Eu1966     O1978   2.348       .  S
Eu1966     O1968   2.352       .  S
C1969      C2173   1.471       .  S
C1970      C2178   1.482       .  S
C1971      C2129   1.473       .  S
C1972      C2133   1.474       .  S
C1973      C2121   1.487       .  S
C1974      C2125   1.475       .  S
C1975      C2117   1.472       .  S
C1976      C2109   1.461       .  S
H1977      O1978   0.965       .  S
H1979      O1980   0.966       .  S
O1981      C1992   1.305       .  A
O1981     Eu2017   2.534       .  S
O1982      C1993   1.289       .  A
O1982     Eu2016   2.446       .  S
O1983      C1994   1.293       .  A
O1983     Eu1989   2.457       .  S
O1984      C1995   1.288       .  A
O1985      C1995   1.302       .  A
O1985     Eu2019   2.513       .  S
O1986      C1994   1.276       .  A
O1986     Eu2018   2.389       .  S
O1987      C1993   1.297   1_565  A
O1987     Eu1989   2.482       .  S
O1988      C1992   1.293       .  A
O1988     Eu1989   2.469       .  S
Eu1989     O1991   2.342       .  S
Eu1989     O1997   2.347       .  S
O1990     Eu2019   2.367       .  S
O1991     Eu2017   2.366       .  S
O1991     Eu2018   2.342       .  S
C1994      C2093   1.455       .  S
C1995      C2089   1.491       .  S
H1996      O1997   0.965       .  S
O1997     Eu2018   2.325       .  S
O1997     Eu2016   2.356   1_565  S
H1998      O1999   0.965       .  S
O1999     Eu2019   2.363       .  S
O2000      C2023   1.295       .  A
O2000     Eu2016   2.476       .  S
O2001      C2024   1.311       .  A
O2001     Eu2017   2.567       .  S
O2002      C2025   1.291       .  A
O2002     Eu2018   2.461       .  S
O2003      C2026   1.294       .  A
O2003     Eu2019   2.477       .  S
O2004      C2027   1.302       .  A
O2004     Eu2019   2.510       .  S
O2005      C2028   1.284       .  A
O2005     Eu2018   2.432       .  S
O2006      C2029   1.299       .  A
O2006     Eu2020   2.510   1_565  S
O2007      C2030   1.282       .  A
O2008      C2029   1.274       .  A
O2008     Eu2018   2.363       .  S
O2009      C2030   1.301       .  A
O2009     Eu2019   2.513       .  S
O2010      C2025   1.286       .  A
O2010     Eu2016   2.438   1_565  S
O2011      C2028   1.294       .  A
O2011     Eu2017   2.455       .  S
O2012      C2027   1.290       .  A
O2013      C2026   1.295       .  A
O2014      C2023   1.280       .  A
O2014     Eu2020   2.403       .  S
O2015      C2024   1.278       .  A
O2015     Eu2020   2.388   1_565  S
Eu2016     O2022   2.339   1_545  S
Eu2017     O2032   2.353       .  S
Eu2018     O2032   2.354       .  S
Eu2018     O2022   2.335       .  S
Eu2019     O2021   2.362       .  S
Eu2019     O2034   2.370       .  S
Eu2020     O2032   2.346   1_545  S
Eu2020     O2022   2.337   1_545  S
C2025      C2118   1.473       .  S
C2026      C2114   1.490       .  S
C2027      C2106   1.499       .  S
C2028      C2110   1.470       .  S
C2029      C2097   1.460       .  S
C2030      C2101   1.476       .  S
H2031      O2032   0.965       .  S
H2033      O2034   0.966       .  S
O2035      C2046   1.293       .  A
O2035     Eu2071   2.475       .  S
O2036      C2047   1.300       .  A
O2036     Eu2070   2.509       .  S
O2037      C2048   1.281       .  A
O2037     Eu2355   2.404   1_554  S
O2038      C2049   1.299       .  A
O2038     Eu2043   2.501       .  S
O2039      C2049   1.283       .  A
O2039     Eu2073   2.412       .  S
O2040      C2048   1.299       .  A
O2040     Eu2072   2.500       .  S
O2041      C2047   1.287       .  A
O2041     Eu2043   2.441       .  S
O2042      C2046   1.292       .  A
O2042     Eu2043   2.466       .  S
Eu2043     O2349   2.492       .  S
Eu2043     O2053   2.355       .  S
Eu2043     O2357   2.354       .  S
Eu2043     O2044   2.359       .  S
Eu2043     O2363   2.368       .  S
O2044     Eu2073   2.355       .  S
O2044     Eu2070   2.346       .  S
O2045     Eu2355   2.361   1_554  S
O2045     Eu2383   2.369       .  S
O2045     Eu2072   2.340       .  S
C2046      C2461   1.487       .  S
C2047      C2458   1.491       .  S
C2048      C2126   1.473       .  S
C2049      C2130   1.471       .  S
H2050      O2051   0.966       .  S
O2051     Eu2355   2.334   1_554  S
O2051     Eu2072   2.340       .  S
O2051     Eu2382   2.343   1_554  S
H2052      O2053   0.966       .  S
O2053     Eu2071   2.346       .  S
O2053     Eu2073   2.376       .  S
O2054      C2077   1.292       .  A
O2054     Eu2070   2.471       .  S
O2055      C2078   1.293       .  A
O2055     Eu2071   2.462       .  S
O2056      C2079   1.294       .  A
O2056     Eu2072   2.468       .  S
O2057      C2080   1.299       .  A
O2057     Eu2073   2.486       .  S
O2058      C2081   1.286       .  A
O2058     Eu2073   2.433       .  S
O2059      C2082   1.287       .  A
O2059     Eu2072   2.439       .  S
O2060      C2083   1.297       .  A
O2060     Eu2386   2.492   1_554  S
O2061      C2084   1.282       .  A
O2061     Eu2074   2.415       .  S
O2062      C2083   1.290       .  A
O2062     Eu2072   2.450       .  S
O2063      C2084   1.294       .  A
O2063     Eu2073   2.480       .  S
O2064      C2079   1.277       .  A
O2064     Eu2382   2.388   1_554  S
O2065      C2082   1.302       .  A
O2065     Eu2383   2.517       .  S
O2066      C2081   1.300       .  A
O2066     Eu2071   2.497       .  S
O2067      C2080   1.279       .  A
O2067     Eu2070   2.399       .  S
O2068      C2077   1.290       .  A
O2068     Eu2074   2.450       .  S
O2069      C2078   1.289       .  A
O2069     Eu2074   2.456       .  S
Eu2070     O2376   2.418       .  S
Eu2070     O2363   2.338       .  S
Eu2070     O2088   2.365       .  S
Eu2070     O2388   2.359       .  S
Eu2071     O2377   2.465       .  S
Eu2071     O2357   2.353       .  S
Eu2071     O2075   2.352       .  S
Eu2071     O2398   2.369       .  S
Eu2072     O2086   2.370       .  S
Eu2072     O2076   2.353       .  S
Eu2073     O2075   2.344       .  S
Eu2073     O2088   2.326       .  S
Eu2074     O2372   2.404       .  S
Eu2074     O2075   2.336       .  S
Eu2074     O2398   2.352       .  S
Eu2074     O2088   2.348       .  S
Eu2074     O2388   2.352       .  S
O2076     Eu2382   2.329   1_554  S
O2076     Eu2386   2.343   1_554  S
C2077      C2450   1.476       .  S
C2078      C2454   1.475       .  S
C2079      C2094   1.451       .  S
C2080      C2098   1.468       .  S
C2081      C2102   1.483       .  S
C2082      C2090   1.489       .  S
C2083      C2122   1.482       .  S
C2084      C2134   1.469       .  S
H2085      O2086   0.965       .  S
O2086     Eu2383   2.364       .  S
O2086     Eu2386   2.370   1_554  S
H2087      O2088   0.966       .  S
C2089      C2090   1.341       .  D
C2089      H2091   1.087       .  S
C2090      H2092   1.087       .  S
C2093      C2094   1.328       .  D
C2093      H2095   1.087       .  S
C2094      H2096   1.088       .  S
C2097      C2098   1.327       .  D
C2097      H2099   1.088       .  S
C2098      H2100   1.087       .  S
C2101      C2102   1.336       .  D
C2101      H2103   1.088       .  S
C2102      H2104   1.087       .  S
C2105      C2106   1.343       .  D
C2105      H2107   1.087       .  S
C2106      H2108   1.086       .  S
C2109      C2110   1.333       .  D
C2109      H2111   1.088       .  S
C2110      H2112   1.087       .  S
C2113      C2114   1.351       .  D
C2113      H2115   1.086       .  S
C2114      H2116   1.087       .  S
C2117      C2118   1.343       .  D
C2117      H2119   1.087       .  S
C2118      H2120   1.087       .  S
C2121      C2122   1.347       .  D
C2121      H2123   1.086       .  S
C2122      H2124   1.087       .  S
C2125      C2126   1.334       .  D
C2125      H2127   1.087       .  S
C2126      H2128   1.087       .  S
C2129      C2130   1.336       .  D
C2129      H2131   1.087       .  S
C2130      H2132   1.088       .  S
C2133      C2134   1.338       .  D
C2133      H2135   1.087       .  S
C2134      H2136   1.087       .  S
C2137      C2138   1.335       .  D
C2137      H2139   1.087       .  S
C2138      C2389   1.467       .  S
C2138      H2452   1.087   1_554  S
H2140      C2450   1.087       .  S
C2141      C2142   1.341       .  D
C2141      H2455   1.086       .  S
C2142      C2390   1.492       .  S
C2142      H2144   1.087   1_554  S
H2143      C2453   1.087       .  S
C2145      C2146   1.328       .  D
C2145      H2147   1.087       .  S
C2146      C2359   1.460       .  S
C2146      H2460   1.088       .  S
H2148      C2458   1.087       .  S
C2149      C2358   1.481       .  S
C2149      C2150   1.329       .  D
C2149      H2151   1.087       .  S
C2150      H2464   1.088       .  S
H2152      C2462   1.087       .  S
C2153      C2154   1.343       .  D
C2154      H2156   1.087       .  S
C2157      C2158   1.339       .  D
C2157      H2159   1.087       .  S
C2161      C2162   1.338       .  D
C2161      H2163   1.087       .  S
C2165      C2166   1.350       .  D
C2165      H2167   1.087       .  S
C2169      C2170   1.343       .  D
C2170      H2172   1.087       .  S
C2173      C2174   1.343       .  D
C2174      H2176   1.087       .  S
C2177      C2178   1.339       .  D
C2177      H2179   1.087       .  S
C2181      C2182   1.343       .  D
C2181      H2183   1.087       .  S
O2185      C2196   1.294       .  A
O2185     Eu2221   2.481       .  S
O2186      C2197   1.291       .  A
O2186     Eu2220   2.459       .  S
O2187      C2198   1.294       .  A
O2187     Eu2193   2.481       .  S
O2188      C2199   1.294       .  A
O2189      C2199   1.288       .  A
O2189     Eu2223   2.443       .  S
O2190      C2198   1.294       .  A
O2190     Eu2222   2.471       .  S
O2191      C2197   1.285       .  A
O2192      C2196   1.288       .  A
O2192     Eu2193   2.438       .  S
Eu2193     O2195   2.365       .  S
O2195     Eu2221   2.353       .  S
O2195     Eu2222   2.361       .  S
C2196      C2493   1.478       .  S
C2197      C2481   1.468       .  S
C2198      C2462   1.488       .  S
C2199      C2453   1.476       .  S
H2200      O2201   0.966       .  S
O2201     Eu2220   2.324       .  S
H2202      O2203   0.964       .  S
O2203     Eu2223   2.363       .  S
O2204      C2227   1.282       .  A
O2205      C2228   1.300       .  A
O2206      C2229   1.291       .  A
O2207      C2230   1.288       .  A
O2208      C2231   1.293       .  A
O2208     Eu2223   2.466       .  S
O2209      C2232   1.287       .  A
O2209     Eu2222   2.437       .  S
O2210      C2233   1.300       .  A
O2210     Eu2224   2.514       .  S
O2211      C2234   1.292       .  A
O2212      C2233   1.287       .  A
O2213      C2234   1.290       .  A
O2214      C2229   1.282       .  A
O2214     Eu2220   2.423       .  S
O2215      C2232   1.300       .  A
O2215     Eu2221   2.509       .  S
O2216      C2231   1.293       .  A
O2217      C2230   1.288       .  A
O2218      C2227   1.297       .  A
O2219      C2228   1.287       .  A
O2219     Eu2224   2.442       .  S
Eu2224     O2236   2.348       .  S
C2227      C2486   1.482       .  S
C2228      C2489   1.487       .  S
C2229      C2470   1.470       .  S
C2230      C2465   1.473       .  S
C2231      C2477   1.483       .  S
C2232      C2474   1.487       .  S
C2233      C2457   1.490       .  S
C2234      C2449   1.477       .  S
H2235      O2236   0.966       .  S
H2237      O2238   0.965       .  S
O2239      C2250   1.293       .  A
O2239     Eu2275   2.472       .  S
O2240      C2251   1.290       .  A
O2240     Eu2274   2.449       .  S
O2241      C2252   1.288       .  A
O2241     Eu2247   2.450       .  S
O2242      C2253   1.290       .  A
O2243      C2253   1.294       .  A
O2243     Eu2277   2.470       .  S
O2244      C2252   1.302       .  A
O2244     Eu2276   2.511       .  S
O2245      C2251   1.288       .  A
O2245     Eu2247   2.449       .  S
O2246      C2250   1.289       .  A
O2246     Eu2247   2.444       .  S
Eu2247     O2249   2.362       .  S
Eu2247     O2255   2.365       .  S
O2248     Eu2277   2.347       .  S
O2249     Eu2275   2.360       .  S
O2249     Eu2276   2.349       .  S
C2250      C2494   1.477       .  S
C2251      C2482   1.471       .  S
C2252      C2425   1.490       .  S
C2253      C2417   1.477       .  S
H2254      O2255   0.966       .  S
O2255     Eu2276   2.360       .  S
O2255     Eu2274   2.340       .  S
H2256      O2257   0.965       .  S
O2257     Eu2277   2.385       .  S
O2258      C2281   1.286       .  A
O2258     Eu2274   2.442       .  S
O2259      C2282   1.301       .  A
O2259     Eu2275   2.507       .  S
O2260      C2283   1.289       .  A
O2260     Eu2276   2.450       .  S
O2261      C2284   1.300       .  A
O2261     Eu2277   2.504       .  S
O2262      C2285   1.284       .  A
O2262     Eu2277   2.415       .  S
O2263      C2286   1.293       .  A
O2263     Eu2276   2.464       .  S
O2264      C2287   1.288       .  A
O2264     Eu2278   2.436       .  S
O2265      C2288   1.280       .  A
O2266      C2287   1.296       .  A
O2266     Eu2276   2.489       .  S
O2267      C2288   1.301       .  A
O2267     Eu2277   2.523       .  S
O2268      C2283   1.293       .  A
O2268     Eu2274   2.464       .  S
O2269      C2286   1.296       .  A
O2269     Eu2275   2.490       .  S
O2270      C2285   1.309       .  A
O2271      C2284   1.280       .  A
O2272      C2281   1.299       .  A
O2272     Eu2278   2.499       .  S
O2273      C2282   1.288       .  A
O2273     Eu2278   2.444       .  S
Eu2274     O2280   2.343       .  S
Eu2275     O2290   2.358       .  S
Eu2276     O2290   2.365       .  S
Eu2276     O2280   2.363       .  S
Eu2277     O2279   2.362       .  S
Eu2277     O2292   2.332       .  S
Eu2278     O2290   2.374       .  S
Eu2278     O2280   2.350       .  S
C2281      C2485   1.487       .  S
C2282      C2490   1.489       .  S
C2283      C2441   1.480       .  S
C2284      C2445   1.474       .  S
C2285      C2433   1.490       .  S
C2286      C2437   1.493       .  S
C2287      C2429   1.480       .  S
C2288      C2421   1.481       .  S
H2289      O2290   0.966       .  S
H2291      O2292   0.966       .  S
O2293      C2304   1.306       .  A
O2293     Eu2329   2.534       .  S
O2294      C2305   1.283       .  A
O2294     Eu2328   2.416       .  S
O2295      C2306   1.296       .  A
O2295     Eu2301   2.493   1_565  S
O2296      C2307   1.299       .  A
O2297      C2307   1.290       .  A
O2297     Eu2331   2.453       .  S
O2298      C2306   1.283       .  A
O2298     Eu2330   2.412       .  S
O2299      C2305   1.298       .  A
O2299     Eu2301   2.493       .  S
O2300      C2304   1.289   1_545  A
O2300     Eu2301   2.444       .  S
Eu2301     O2303   2.366   1_545  S
Eu2301     O2309   2.352   1_545  S
O2302     Eu2331   2.368       .  S
O2303     Eu2329   2.364       .  S
O2303     Eu2330   2.341       .  S
C2306      C2405   1.475       .  S
C2307      C2401   1.483       .  S
H2308      O2309   0.965       .  S
O2309     Eu2330   2.352       .  S
O2309     Eu2328   2.362   1_565  S
H2310      O2311   0.964       .  S
O2311     Eu2331   2.365       .  S
O2312      C2335   1.290   1_545  A
O2312     Eu2328   2.450       .  S
O2313      C2336   1.311       .  A
O2313     Eu2329   2.566       .  S
O2314      C2337   1.288       .  A
O2314     Eu2330   2.440       .  S
O2315      C2338   1.284       .  A
O2315     Eu2331   2.416       .  S
O2316      C2339   1.288       .  A
O2316     Eu2331   2.447       .  S
O2317      C2340   1.288       .  A
O2317     Eu2330   2.458       .  S
O2318      C2341   1.288       .  A
O2318     Eu2332   2.428       .  S
O2319      C2342   1.274       .  A
O2320      C2341   1.279       .  A
O2320     Eu2330   2.406       .  S
O2321      C2342   1.303       .  A
O2321     Eu2331   2.523       .  S
O2322      C2337   1.294       .  A
O2322     Eu2328   2.483   1_565  S
O2323      C2340   1.298       .  A
O2323     Eu2329   2.484       .  S
O2324      C2339   1.292       .  A
O2325      C2338   1.303       .  A
O2326      C2335   1.283       .  A
O2326     Eu2332   2.423       .  S
O2327      C2336   1.278       .  A
O2327     Eu2332   2.386       .  S
Eu2328     O2334   2.338   1_545  S
Eu2329     O2344   2.351       .  S
Eu2330     O2344   2.348       .  S
Eu2330     O2334   2.349       .  S
Eu2331     O2333   2.326       .  S
Eu2331     O2346   2.342       .  S
Eu2332     O2344   2.347       .  S
Eu2332     O2334   2.325       .  S
C2337      C2430   1.480       .  S
C2338      C2426   1.484       .  S
C2339      C2418   1.475       .  S
C2340      C2422   1.489       .  S
C2341      C2409   1.453       .  S
C2342      C2413   1.473       .  S
H2343      O2344   0.966       .  S
H2345      O2346   0.966       .  S
O2347      C2358   1.306       .  A
O2347     Eu2383   2.527       .  S
O2348      C2359   1.277       .  A
O2348     Eu2382   2.391       .  S
O2349      C2360   1.297       .  A
O2350      C2361   1.285       .  A
O2350     Eu2355   2.434       .  S
O2351      C2361   1.293       .  A
O2351     Eu2385   2.477       .  S
O2352      C2360   1.294       .  A
O2352     Eu2384   2.473       .  S
O2353      C2359   1.296       .  A
O2353     Eu2355   2.480       .  S
O2354      C2358   1.281       .  A
O2354     Eu2355   2.407   1_554  S
Eu2355     O2365   2.353       .  S
Eu2355     O2356   2.322       .  S
O2356     Eu2385   2.320       .  S
O2356     Eu2382   2.342       .  S
O2357     Eu2384   2.374       .  S
C2360      C2438   1.488       .  S
C2361      C2442   1.475       .  S
H2362      O2363   0.965       .  S
O2363     Eu2384   2.372       .  S
H2364      O2365   0.966       .  S
O2365     Eu2383   2.375   1_556  S
O2365     Eu2385   2.338       .  S
O2366      C2389   1.280       .  A
O2366     Eu2382   2.409   1_554  S
O2367      C2390   1.306       .  A
O2367     Eu2383   2.542       .  S
O2368      C2391   1.296       .  A
O2368     Eu2384   2.487       .  S
O2369      C2392   1.288       .  A
O2369     Eu2385   2.438       .  S
O2370      C2393   1.277       .  A
O2370     Eu2385   2.381       .  S
O2371      C2394   1.297       .  A
O2371     Eu2384   2.479       .  S
O2372      C2395   1.280       .  A
O2373      C2396   1.300       .  A
O2373     Eu2386   2.502       .  S
O2374      C2395   1.307       .  A
O2374     Eu2384   2.544       .  S
O2375      C2396   1.281       .  A
O2375     Eu2385   2.409       .  S
O2376      C2391   1.285       .  A
O2377      C2394   1.292       .  A
O2378      C2393   1.305       .  A
O2378     Eu2383   2.527   1_556  S
O2379      C2392   1.278       .  A
O2379     Eu2382   2.393       .  S
O2380      C2389   1.294       .  A
O2380     Eu2386   2.475   1_554  S
O2381      C2390   1.285       .  A
O2381     Eu2386   2.423   1_554  S
Eu2382     O2400   2.328       .  S
Eu2383     O2387   2.354   1_554  S
Eu2384     O2398   2.352       .  S
Eu2384     O2388   2.344       .  S
Eu2385     O2387   2.361       .  S
Eu2385     O2400   2.357       .  S
Eu2386     O2387   2.357       .  S
Eu2386     O2400   2.350       .  S
C2391      C2406   1.474       .  S
C2392      C2410   1.445       .  S
C2393      C2414   1.472       .  S
C2394      C2402   1.488       .  S
C2395      C2434   1.491       .  S
C2396      C2446   1.474       .  S
H2397      O2398   0.965       .  S
H2399      O2400   0.966       .  S
C2401      C2402   1.345       .  D
C2401      H2403   1.087       .  S
C2402      H2404   1.087       .  S
C2405      C2406   1.354       .  D
C2405      H2407   1.086       .  S
C2406      H2408   1.087       .  S
C2409      C2410   1.333       .  D
C2409      H2411   1.087       .  S
C2410      H2412   1.088       .  S
C2413      C2414   1.325       .  D
C2413      H2415   1.088       .  S
C2414      H2416   1.088       .  S
C2417      C2418   1.344       .  D
C2417      H2419   1.087       .  S
C2418      H2420   1.087       .  S
C2421      C2422   1.339       .  D
C2421      H2423   1.088       .  S
C2422      H2424   1.086       .  S
C2425      C2426   1.341       .  D
C2425      H2427   1.087       .  S
C2426      H2428   1.087       .  S
C2429      C2430   1.352       .  D
C2429      H2431   1.086       .  S
C2430      H2432   1.087       .  S
C2433      C2434   1.335       .  D
C2433      H2435   1.087       .  S
C2434      H2436   1.087       .  S
C2437      C2438   1.352       .  D
C2437      H2439   1.086       .  S
C2438      H2440   1.087       .  S
C2441      C2442   1.344       .  D
C2441      H2443   1.087       .  S
C2442      H2444   1.087       .  S
C2445      C2446   1.332       .  D
C2445      H2447   1.087       .  S
C2446      H2448   1.087       .  S
C2449      C2450   1.348       .  D
C2449      H2451   1.087       .  S
C2453      C2454   1.343       .  D
C2454      H2456   1.087       .  S
C2457      C2458   1.343       .  D
C2457      H2459   1.087       .  S
C2461      C2462   1.350       .  D
C2461      H2463   1.087       .  S
C2465      C2466   1.346       .  D
C2466      H2468   1.087       .  S
C2469      C2470   1.339       .  D
C2469      H2471   1.087       .  S
C2473      C2474   1.343       .  D
C2473      H2475   1.087       .  S
C2477      C2478   1.349       .  D
C2477      H2479   1.087       .  S
C2481      C2482   1.342       .  D
C2482      H2484   1.087       .  S
C2485      C2486   1.341       .  D
C2486      H2488   1.087       .  S
C2489      C2490   1.342       .  D
C2489      H2491   1.087       .  S
C2493      C2494   1.351       .  D
C2493      H2495   1.087       .  S
