geometry optimzed in LAMMPS
_audit_creation_date              2020-11-30 
_audit_creation_method            'lammps2cif' 
_symmetry_space_group_name_H-M    'P1' 
_symmetry_Int_Tables_number       1 
_symmetry_cell_setting            triclinic 
loop_ 
_symmetry_equiv_pos_as_xyz 
  x,y,z 
_cell_length_a                    46.51750544 
_cell_length_b                    37.764420321605165 
_cell_length_c                    24.45860205138915 
_cell_angle_alpha                 89.99635934326477 
_cell_angle_beta                  89.9326616720648 
_cell_angle_gamma                 90.00052827018922 
loop_ 
_atom_site_label 
_atom_site_type_symbol 
_atom_site_fract_x 
_atom_site_fract_y 
_atom_site_fract_z 
_atom_site_charge 
N1          N  0.71785371  0.52966528  0.57977846    -0.27000
N2          N  0.69287028  0.54341244  0.59383307    -0.34800
C3          C  0.69708153  0.57505617  0.61700021     0.01400
C4          C  0.72622595  0.58155246  0.61797928     0.07400
C5          C  0.73892388  0.55223835  0.59406820    -0.05700
H6          H  0.68038001  0.59078691  0.63597496     0.08100
H7          H  0.76166119  0.54642563  0.59162460     0.09300
Cu8        Cu  0.65492851  0.51627313  0.58916389     0.44200
Cu9        Cu  0.72063066  0.47794739  0.55378037     0.42000
Cu10       Cu  0.65178263  0.42747606  0.54095209     0.43900
N11         N  0.61716804  0.49178481  0.56949099    -0.34300
N12         N  0.61520986  0.45967740  0.54842701    -0.28600
C13         C  0.58811194  0.45514061  0.52975799    -0.04700
C14         C  0.57275906  0.48612712  0.53955995     0.07500
C15         C  0.59185873  0.50838776  0.56536752     0.01300
H16         H  0.58087280  0.43239285  0.50669376     0.09000
H17         H  0.58843623  0.53595209  0.57553759     0.08100
N18         N  0.69321226  0.40531712  0.54228819    -0.35800
N19         N  0.71738213  0.42368940  0.54655816    -0.28000
C20         C  0.73991343  0.40144909  0.54558503    -0.03200
C21         C  0.72968060  0.36737991  0.54037304     0.05400
C22         C  0.70000780  0.37072889  0.53824969     0.03500
H23         H  0.76218056  0.40970041  0.54657632     0.08600
H24         H  0.68455141  0.34968478  0.53224511     0.07400
N25         N  0.71777271  0.52962898  0.91817577    -0.27000
N26         N  0.69281190  0.54327555  0.90384218    -0.34800
C27         C  0.69704794  0.57484919  0.88041309     0.01400
C28         C  0.72618568  0.58141861  0.87957567     0.07400
C29         C  0.73885452  0.55219615  0.90378151    -0.05700
H30         H  0.68036984  0.59052594  0.86133104     0.08100
H31         H  0.76159425  0.54646430  0.90647220     0.09300
Cu32       Cu  0.65485687  0.51617039  0.90912873     0.44200
Cu33       Cu  0.72050552  0.47804381  0.94503780     0.42000
Cu34       Cu  0.65188975  0.42732297  0.95800879     0.43900
N35         N  0.61724344  0.49175499  0.93024133    -0.34300
N36         N  0.61538432  0.45964676  0.95136633    -0.28600
C37         C  0.58841370  0.45514422  0.97079977    -0.04700
C38         C  0.57304337  0.48615083  0.96145087     0.07500
C39         C  0.59198655  0.50840253  0.93513242     0.01300
H40         H  0.58128991  0.43238060  0.99399262     0.09000
H41         H  0.58850007  0.53595148  0.92495283     0.08100
N42         N  0.69333222  0.40526245  0.95674868    -0.35800
N43         N  0.71745297  0.42373875  0.95248039    -0.28000
C44         C  0.74004247  0.40158611  0.95355636    -0.03200
C45         C  0.72989588  0.36747187  0.95885999     0.05400
C46         C  0.70021011  0.37070426  0.96091480     0.03500
H47         H  0.76228851  0.40992649  0.95256737     0.08600
H48         H  0.68479777  0.34960509  0.96694790     0.07400
N49         N  0.74535920  0.61983040  0.74881226    -0.36300
N50         N  0.74745445  0.67217444  0.83276451    -0.56800
N51         N  0.74701242  0.72843448  0.74883113    -0.36300
N52         N  0.74726478  0.67229163  0.66492358    -0.56800
C53         C  0.74951590  0.59941483  0.79326993     0.27300
C54         C  0.74950152  0.59946320  0.70428515     0.27300
C55         C  0.75572073  0.74637110  0.79363494     0.27300
C56         C  0.75558703  0.74642614  0.70393614     0.27300
C57         C  0.73558679  0.64468613  0.86002675     0.35900
C58         C  0.73837074  0.70160522  0.85857840     0.35900
C59         C  0.73545014  0.64478537  0.63770051     0.35900
C60         C  0.73810056  0.70170193  0.63919226     0.35900
C61         C  0.75744309  0.56564017  0.77689268    -0.21600
C62         C  0.75743831  0.56566937  0.72056637    -0.21600
C63         C  0.76983282  0.77695739  0.77723487    -0.21600
C64         C  0.76974953  0.77699108  0.72019583    -0.21600
C65         C  0.71930602  0.65667214  0.90367334    -0.22600
C66         C  0.72092851  0.69288151  0.90232898    -0.22600
C67         C  0.71912687  0.65674408  0.59415677    -0.22600
C68         C  0.72065796  0.69294938  0.59553899    -0.22600
C69         C  0.73971345  0.60898397  0.84568665    -0.18000
C70         C  0.73967813  0.60908844  0.65193419    -0.18000
C71         C  0.74878445  0.73572041  0.64994663    -0.18000
C72         C  0.74906915  0.73561806  0.84770021    -0.18000
H73         H  0.76089545  0.54266442  0.80239007     0.15000
H74         H  0.76089354  0.54270841  0.69503566     0.15000
H75         H  0.77883268  0.79720907  0.80342538     0.15000
H76         H  0.77867394  0.79727163  0.69392097     0.15000
H77         H  0.70716062  0.64109275  0.93272827     0.13200
H78         H  0.70994373  0.71099062  0.92924097     0.13200
H79         H  0.70701870  0.64115079  0.56512475     0.13200
H80         H  0.70964104  0.71103266  0.56867557     0.13200
H81         H  0.73418223  0.64370238  0.74887497     0.26500
H82         H  0.73359522  0.70632583  0.74891590     0.26500
N83         N  0.71786404  0.52788125  0.41194526    -0.27000
N84         N  0.69478618  0.50879507  0.40184168    -0.34800
C85         C  0.70267148  0.47737134  0.38147639     0.01400
C86         C  0.73231132  0.47648536  0.37861401     0.07400
C87         C  0.74134980  0.50899515  0.39849517    -0.05700
H88         H  0.68787712  0.45771989  0.36585612     0.08100
H89         H  0.76309380  0.51912052  0.39935268     0.09300
Cu90       Cu  0.65407673  0.52864055  0.40988169     0.44200
Cu91       Cu  0.71395662  0.58048705  0.43273284     0.42000
Cu92       Cu  0.64089020  0.61793091  0.45727266     0.43900
N93         N  0.61421274  0.54711190  0.43078386    -0.34300
N94         N  0.60855606  0.57864651  0.45167689    -0.28600
C95         C  0.58108125  0.57829856  0.47019158    -0.04700
C96         C  0.56940268  0.54491149  0.46015071     0.07500
C97         C  0.59102620  0.52631308  0.43462563     0.01300
H98         H  0.57110924  0.59964108  0.49279938     0.09000
H99         H  0.59080843  0.49847980  0.42412843     0.08100
N100        N  0.67938692  0.64777588  0.45360782    -0.35800
N101        N  0.70491936  0.63341910  0.44423511    -0.28000
C102        C  0.72516559  0.65864595  0.44510072    -0.03200
C103        C  0.71225839  0.69073632  0.45570514     0.05400
C104        C  0.68313342  0.68300571  0.46104378     0.03500
H105        H  0.74794845  0.65363277  0.44057324     0.08600
H106        H  0.66615688  0.70135478  0.47160408     0.07400
N107        N  0.71847735  0.52828054  0.08837682    -0.27000
N108        N  0.69543335  0.50917183  0.09882585    -0.34800
C109        C  0.70340518  0.47776139  0.11909957     0.01400
C110        C  0.73305176  0.47691379  0.12153766     0.07400
C111        C  0.74201457  0.50944628  0.10160470    -0.05700
H112        H  0.68867372  0.45804608  0.13481326     0.08100
H113        H  0.76375138  0.51959167  0.10047192     0.09300
Cu114      Cu  0.65461910  0.52879908  0.09093213     0.44200
Cu115      Cu  0.71455152  0.58074436  0.06673720     0.42000
Cu116      Cu  0.64156247  0.61769320  0.04129826     0.43900
N117        N  0.61475840  0.54717197  0.06969233    -0.34300
N118        N  0.60917460  0.57853727  0.04813251    -0.28600
C119        C  0.58167600  0.57816265  0.02988067    -0.04700
C120        C  0.56988536  0.54494570  0.04077895     0.07500
C121        C  0.59149371  0.52645039  0.06646547     0.01300
H122        H  0.57175496  0.59934204  0.00687085     0.09000
H123        H  0.59119577  0.49870534  0.07751035     0.08100
N124        N  0.67995099  0.64776932  0.04447858    -0.35800
N125        N  0.70549337  0.63356315  0.05415166    -0.28000
C126        C  0.72567629  0.65886431  0.05308722    -0.03200
C127        C  0.71271426  0.69086061  0.04208666     0.05400
C128        C  0.68362198  0.68298404  0.03666915     0.03500
H129        H  0.74845518  0.65397142  0.05788830     0.08600
H130        H  0.66661815  0.70122408  0.02589320     0.07400
N131        N  0.75607376  0.44010926  0.24990855    -0.36300
N132        N  0.76227221  0.38867021  0.16533380    -0.56800
N133        N  0.76599992  0.33293071  0.24960218    -0.36300
N134        N  0.76135276  0.38829078  0.33401293    -0.56800
C135        C  0.75949227  0.46081492  0.20553728     0.27300
C136        C  0.75903239  0.46066955  0.29454326     0.27300
C137        C  0.77577664  0.31579231  0.20481242     0.27300
C138        C  0.77546473  0.31565095  0.29447190     0.27300
C139        C  0.74793351  0.41470843  0.13898858     0.35900
C140        C  0.75513062  0.35830473  0.13985917     0.35900
C141        C  0.74691626  0.41425115  0.36038719     0.35900
C142        C  0.75422513  0.35785024  0.35932497     0.35900
C143        C  0.76608689  0.49496654  0.22211289    -0.21600
C144        C  0.76579565  0.49488056  0.27839828    -0.21600
C145        C  0.79169255  0.28659368  0.22119041    -0.21600
C146        C  0.79150572  0.28651298  0.27820358    -0.21600
C147        C  0.73196344  0.40086347  0.09633492    -0.22600
C148        C  0.73642949  0.36499005  0.09723047    -0.22600
C149        C  0.73086241  0.40027086  0.40290396    -0.22600
C150        C  0.73541615  0.36440540  0.40192157    -0.22600
C151        C  0.74956127  0.45074458  0.15348819    -0.18000
C152        C  0.74871410  0.45035769  0.34629264    -0.18000
C153        C  0.76737579  0.32512571  0.34837414    -0.18000
C154        C  0.76807225  0.32547250  0.15083569    -0.18000
H155        H  0.76886799  0.51819559  0.19693720     0.15000
H156        H  0.76835108  0.51805159  0.30374848     0.15000
H157        H  0.80177791  0.26710753  0.19499822     0.15000
H158        H  0.80141055  0.26694327  0.30445612     0.15000
H159        H  0.71817162  0.41491801  0.06821159     0.13200
H160        H  0.72637655  0.34574133  0.07090806     0.13200
H161        H  0.71703854  0.41424048  0.43112248     0.13200
H162        H  0.72542684  0.34509898  0.42829522     0.13200
H163        H  0.74585237  0.41558488  0.24963135     0.26500
H164        H  0.75110653  0.35352200  0.24949373     0.26500
C165        C  0.54495090  0.49737162  0.51580096     0.02600
C166        C  0.54302653  0.52839328  0.48303798     0.02600
C167        C  0.51592302  0.54059809  0.46624866    -0.17900
C168        C  0.49082171  0.52209388  0.48061788     0.02600
C169        C  0.49287318  0.49120639  0.51367193     0.02600
C170        C  0.51991700  0.47895836  0.53021789    -0.17900
H171        H  0.52138019  0.45608794  0.55687814     0.04600
H172        H  0.51446997  0.56349425  0.43966037     0.04600
N173        N  0.31577479  0.49414764  0.41619210    -0.27000
N174        N  0.34050116  0.47861723  0.40529841    -0.34800
C175        C  0.33554853  0.44660937  0.38399047     0.01400
C176        C  0.30621577  0.44166460  0.38121245     0.07400
C177        C  0.29418088  0.47232870  0.40206802    -0.05700
H178        H  0.35203211  0.42938221  0.36760893     0.08100
H179        H  0.27163946  0.47934828  0.40298600     0.09300
Cu180      Cu  0.37951606  0.50332048  0.41195368     0.44200
Cu181      Cu  0.31416257  0.54645895  0.43850534     0.42000
Cu182      Cu  0.38441595  0.59371057  0.45274276     0.43900
N183        N  0.41789097  0.52736535  0.42929993    -0.34300
N184        N  0.42051513  0.56016052  0.44739293    -0.28600
C185        C  0.44788994  0.56472901  0.46471595    -0.04700
C186        C  0.46277067  0.53309949  0.45714051     0.07500
C187        C  0.44304698  0.51041303  0.43386117     0.01300
H188        H  0.45570226  0.58816482  0.48532559     0.09000
H189        H  0.44603229  0.48252909  0.42543875     0.08100
N190        N  0.34344852  0.61768528  0.45321918    -0.35800
N191        N  0.31890793  0.60018885  0.44796946    -0.28000
C192        C  0.29679034  0.62289089  0.45085219    -0.03200
C193        C  0.30756636  0.65643854  0.45849732     0.05400
C194        C  0.33722923  0.65232000  0.45997622     0.03500
H195        H  0.27439180  0.61520945  0.44957586     0.08600
H196        H  0.35303324  0.67278576  0.46730799     0.07400
N197        N  0.31639427  0.49366536  0.08692637    -0.27000
N198        N  0.34112788  0.47819697  0.09786968    -0.34800
C199        C  0.33618464  0.44627291  0.11950320     0.01400
C200        C  0.30685274  0.44133839  0.12242563     0.07400
C201        C  0.29480936  0.47188907  0.10129680    -0.05700
H202        H  0.35266918  0.42911271  0.13597852     0.08100
H203        H  0.27226417  0.47888020  0.10034073     0.09300
Cu204      Cu  0.38012093  0.50289646  0.09089797     0.44200
Cu205      Cu  0.31465029  0.54590393  0.06442428     0.42000
Cu206      Cu  0.38468905  0.59318521  0.04945612     0.43900
N207        N  0.41840580  0.52711535  0.07337192    -0.34300
N208        N  0.42090080  0.55984264  0.05491072    -0.28600
C209        C  0.44825279  0.56448986  0.03739699    -0.04700
C210        C  0.46325852  0.53298829  0.04527521     0.07500
C211        C  0.44362800  0.51029477  0.06890895     0.01300
H212        H  0.45596109  0.58785896  0.01642914     0.09000
H213        H  0.44670643  0.48245056  0.07752012     0.08100
N214        N  0.34372194  0.61715222  0.04941572    -0.35800
N215        N  0.31920584  0.59963022  0.05490251    -0.28000
C216        C  0.29706158  0.62231293  0.05234040    -0.03200
C217        C  0.30780762  0.65588468  0.04469280     0.05400
C218        C  0.33747015  0.65178653  0.04284877     0.03500
H219        H  0.27467044  0.61461140  0.05387452     0.08600
H220        H  0.35325052  0.67227565  0.03541503     0.07400
N221        N  0.28721304  0.40255140  0.25187673    -0.36300
N222        N  0.28577889  0.35042365  0.33577381    -0.56800
N223        N  0.28732045  0.29414731  0.25196836    -0.36300
N224        N  0.28633931  0.35020917  0.16816891    -0.56800
C225        C  0.28209888  0.42268798  0.29626414     0.27300
C226        C  0.28240665  0.42259130  0.20729075     0.27300
C227        C  0.27877530  0.27610354  0.29678065     0.27300
C228        C  0.27895437  0.27601390  0.20714926     0.27300
C229        C  0.29731661  0.37817469  0.36278563     0.35900
C230        C  0.29557954  0.32124933  0.36122538     0.35900
C231        C  0.29798620  0.37791260  0.14118180     0.35900
C232        C  0.29608181  0.32099829  0.14269547     0.35900
C233        C  0.27278366  0.45588328  0.27975575    -0.21600
C234        C  0.27298227  0.45582545  0.22345085    -0.21600
C235        C  0.26500536  0.24527774  0.28049079    -0.21600
C236        C  0.26511346  0.24522461  0.22345021    -0.21600
C237        C  0.31409441  0.36656693  0.40592799    -0.22600
C238        C  0.31312472  0.33034196  0.40452318    -0.22600
C239        C  0.31479741  0.36623848  0.09804575    -0.22600
C240        C  0.31370988  0.33001874  0.09940349    -0.22600
C241        C  0.29244979  0.41373162  0.34848481    -0.18000
C242        C  0.29305732  0.41348851  0.15529298    -0.18000
C243        C  0.28566544  0.28687926  0.15322456    -0.18000
C244        C  0.28527605  0.28708027  0.35070805    -0.18000
H245        H  0.26815979  0.47862899  0.30502221     0.15000
H246        H  0.26852533  0.47852418  0.19799869     0.15000
H247        H  0.25621001  0.22490211  0.30674480     0.15000
H248        H  0.25642021  0.22479850  0.19720861     0.15000
H249        H  0.32614464  0.38238376  0.43470303     0.13200
H250        H  0.32454532  0.31246496  0.43112398     0.13200
H251        H  0.32689150  0.38200587  0.06921588     0.13200
H252        H  0.32507721  0.31210330  0.07272980     0.13200
H253        H  0.29942681  0.37942470  0.25204520     0.26500
H254        H  0.30049276  0.31649399  0.25201103     0.26500
N255        N  0.31923269  0.49556247  0.58400905    -0.27000
N256        N  0.34274692  0.51302174  0.59717741    -0.34800
C257        C  0.33562048  0.54414326  0.61954531     0.01400
C258        C  0.30604350  0.54648307  0.62088237     0.07400
C259        C  0.29619491  0.51516079  0.59802072    -0.05700
H260        H  0.35078398  0.56241021  0.63768386     0.08100
H261        H  0.27415958  0.50609806  0.59601931     0.09300
Cu262      Cu  0.38290578  0.49135988  0.59129822     0.44200
Cu263      Cu  0.32180268  0.44351619  0.55867056     0.42000
Cu264      Cu  0.39466377  0.40326107  0.54008728     0.43900
N265        N  0.42247981  0.47274581  0.56927044    -0.34300
N266        N  0.42759285  0.44147088  0.54702908    -0.28600
C267        C  0.45478221  0.44170729  0.52720723    -0.04700
C268        C  0.46678679  0.47483151  0.53759032     0.07500
C269        C  0.44572665  0.49338518  0.56476888     0.01300
H270        H  0.46420288  0.42064394  0.50316490     0.09000
H271        H  0.44624379  0.52115413  0.57564176     0.08100
N272        N  0.35554947  0.37483080  0.54283942    -0.35800
N273        N  0.33011986  0.39002626  0.54984757    -0.28000
C274        C  0.30955683  0.36514783  0.55007544    -0.03200
C275        C  0.32216834  0.33247384  0.54264894     0.05400
C276        C  0.35142448  0.33949474  0.53793346     0.03500
H277        H  0.28679963  0.37070375  0.55334014     0.08600
H278        H  0.36829988  0.32049632  0.52980684     0.07400
N279        N  0.31922454  0.49508976  0.91956097    -0.27000
N280        N  0.34279213  0.51259812  0.90684328    -0.34800
C281        C  0.33577505  0.54371238  0.88431334     0.01400
C282        C  0.30619912  0.54602919  0.88240329     0.07400
C283        C  0.29624885  0.51465663  0.90508940    -0.05700
H284        H  0.35104129  0.56201662  0.86651157     0.08100
H285        H  0.27420787  0.50558018  0.90677835     0.09300
Cu286      Cu  0.38288713  0.49080932  0.91348555     0.44200
Cu287      Cu  0.32197822  0.44304479  0.94510208     0.42000
Cu288      Cu  0.39521010  0.40264122  0.96355722     0.43900
N289        N  0.42264294  0.47230656  0.93448111    -0.34300
N290        N  0.42799937  0.44098703  0.95633311    -0.28600
C291        C  0.45529694  0.44131330  0.97550256    -0.04700
C292        C  0.46711745  0.47454879  0.96509138     0.07500
C293        C  0.44584203  0.49304973  0.93852718     0.01300
H294        H  0.46492859  0.42022387  0.99914731     0.09000
H295        H  0.44619789  0.52084655  0.92780088     0.08100
N296        N  0.35603043  0.37439346  0.96085602    -0.35800
N297        N  0.33058659  0.38958075  0.95396511    -0.28000
C298        C  0.31005410  0.36467341  0.95377810    -0.03200
C299        C  0.32268779  0.33201387  0.96109485     0.05400
C300        C  0.35193017  0.33905057  0.96571292     0.03500
H301        H  0.28729321  0.37020198  0.95060259     0.08600
H302        H  0.36881533  0.32006232  0.97375411     0.07400
N303        N  0.28355212  0.58213859  0.75170146    -0.36300
N304        N  0.27665241  0.63411912  0.66730512    -0.56800
N305        N  0.27211838  0.68963247  0.75176893    -0.36300
N306        N  0.27704322  0.63390729  0.83613422    -0.56800
C307        C  0.28116018  0.56136714  0.70714143     0.27300
C308        C  0.28135952  0.56121606  0.79616700     0.27300
C309        C  0.26256252  0.70704417  0.70703803     0.27300
C310        C  0.26274353  0.70693634  0.79675570     0.27300
C311        C  0.29104412  0.60832549  0.64035841     0.35900
C312        C  0.28303675  0.66461059  0.64131592     0.35900
C313        C  0.29140161  0.60804831  0.86297739     0.35900
C314        C  0.28348304  0.66438683  0.86207234     0.35900
C315        C  0.27624441  0.52670782  0.72343182    -0.21600
C316        C  0.27637358  0.52661184  0.77972181    -0.21600
C317        C  0.24702377  0.73650894  0.72362119    -0.21600
C318        C  0.24713645  0.73643990  0.78060631    -0.21600
C319        C  0.30627971  0.62242139  0.59686098    -0.22600
C320        C  0.30133765  0.65819178  0.59788056    -0.22600
C321        C  0.30665860  0.62209378  0.90640393    -0.22600
C322        C  0.30177756  0.65788752  0.90542037    -0.22600
C323        C  0.29013892  0.57221532  0.65474255    -0.18000
C324        C  0.29044146  0.57193272  0.84853442    -0.18000
C325        C  0.27039396  0.69718185  0.85079213    -0.18000
C326        C  0.26998704  0.69738191  0.65281940    -0.18000
H327        H  0.27472982  0.50342030  0.69795180     0.15000
H328        H  0.27496491  0.50323959  0.80504580     0.15000
H329        H  0.23719128  0.75624086  0.69756442     0.15000
H330        H  0.23740929  0.75611615  0.80694585     0.15000
H331        H  0.31995382  0.60858662  0.56816310     0.13200
H332        H  0.31094320  0.67759664  0.57122916     0.13200
H333        H  0.32030277  0.60821395  0.93503760     0.13200
H334        H  0.31138792  0.67725051  0.93209573     0.13200
H335        H  0.29249888  0.60738028  0.75165800     0.26500
H336        H  0.28673454  0.66875899  0.75160239     0.26500
C337        C  0.54531098  0.49732096  0.98565261     0.02600
C338        C  0.54345067  0.52836687  0.01834670     0.02600
C339        C  0.51637889  0.54054243  0.03548370    -0.17900
C340        C  0.49126053  0.52198137  0.02149576     0.02600
C341        C  0.49325499  0.49103656  0.98854191     0.02600
C342        C  0.52026887  0.47881695  0.97168203    -0.17900
H343        H  0.52169370  0.45591029  0.94508657     0.04600
H344        H  0.51496834  0.56347175  0.06201409     0.04600
N345        N  0.81791452  0.02946658  0.58098768    -0.27000
N346        N  0.84287115  0.04306755  0.59544603    -0.34800
C347        C  0.83864084  0.07467923  0.61874611     0.01400
C348        C  0.80951188  0.08131415  0.61936864     0.07400
C349        C  0.79684235  0.05209466  0.59517779    -0.05700
H350        H  0.85530812  0.09033694  0.63789679     0.08100
H351        H  0.77410017  0.04641152  0.59234590     0.09300
Cu352      Cu  0.88079947  0.01587218  0.59052324     0.44200
Cu353      Cu  0.81513425  0.97790582  0.55412983     0.42000
Cu354      Cu  0.88380980  0.92723065  0.54100642     0.43900
N355        N  0.91847169  0.99143298  0.56984643    -0.34300
N356        N  0.92035862  0.95941739  0.54840692    -0.28600
C357        C  0.94739104  0.95494589  0.52926195    -0.04700
C358        C  0.96277757  0.98587361  0.53915611     0.07500
C359        C  0.94377046  0.00804430  0.56546543     0.01300
H360        H  0.95455251  0.93229111  0.50586141     0.09000
H361        H  0.94724514  0.03555756  0.57588482     0.08100
N362        N  0.84235178  0.90520270  0.54186948    -0.35800
N363        N  0.81821742  0.92364752  0.54619769    -0.28000
C364        C  0.79563892  0.90148177  0.54490796    -0.03200
C365        C  0.80581286  0.86739455  0.53942432     0.05400
C366        C  0.83549482  0.87065468  0.53746675     0.03500
H367        H  0.77338702  0.90979599  0.54594805     0.08600
H368        H  0.85092404  0.84957864  0.53140559     0.07400
N369        N  0.81817076  0.02978723  0.91921278    -0.27000
N370        N  0.84314520  0.04357906  0.90520650    -0.34800
C371        C  0.83890684  0.07519016  0.88193737     0.01400
C372        C  0.80975392  0.08163350  0.88086577     0.07400
C373        C  0.79708189  0.05230610  0.90480930    -0.05700
H374        H  0.85560788  0.09095061  0.86301812     0.08100
H375        H  0.77435181  0.04645031  0.90722707     0.09300
Cu376      Cu  0.88113538  0.01656556  0.91026738     0.44200
Cu377      Cu  0.81545168  0.97806327  0.94525368     0.42000
Cu378      Cu  0.88426277  0.92754723  0.95765145     0.43900
N379        N  0.91886199  0.99210555  0.93029691    -0.34300
N380        N  0.92079977  0.95989508  0.95099966    -0.28600
C381        C  0.94784251  0.95532323  0.96993496    -0.04700
C382        C  0.96317926  0.98639448  0.96070164     0.07500
C383        C  0.94413282  0.00874433  0.93492499     0.01300
H384        H  0.95505010  0.93245588  0.99275552     0.09000
H385        H  0.94756332  0.03634863  0.92502072     0.08100
N386        N  0.84283656  0.90536224  0.95608014    -0.35800
N387        N  0.81867786  0.92376730  0.95193749    -0.28000
C388        C  0.79613269  0.90154657  0.95277900    -0.03200
C389        C  0.80633564  0.86745230  0.95781573     0.05400
C390        C  0.83601552  0.87076795  0.95993896     0.03500
H391        H  0.77387201  0.90982942  0.95192138     0.12600
H392        H  0.85145545  0.84969750  0.96588163     0.07400
N393        N  0.79045547  0.11984698  0.75000734    -0.36300
N394        N  0.78828137  0.17212789  0.66587090    -0.56800
N395        N  0.78884343  0.22840004  0.74962353    -0.36300
N396        N  0.78862373  0.17231633  0.83373518    -0.56800
C397        C  0.78621651  0.09938792  0.70561263     0.27300
C398        C  0.78638494  0.09947748  0.79458876     0.27300
C399        C  0.78013677  0.24635675  0.70479542     0.27300
C400        C  0.78025254  0.24643571  0.79449204     0.27300
C401        C  0.80009678  0.14458666  0.63866520     0.35900
C402        C  0.79739144  0.20150588  0.63993238     0.35900
C403        C  0.80051007  0.14486248  0.86097796     0.35900
C404        C  0.79779450  0.20177330  0.85931310     0.35900
C405        C  0.77831403  0.06562083  0.72208304    -0.21600
C406        C  0.77841833  0.06567565  0.77841257    -0.21600
C407        C  0.76604209  0.27695685  0.72115038    -0.21600
C408        C  0.76611026  0.27700300  0.77819695    -0.21600
C409        C  0.81636137  0.15648699  0.59493840    -0.22600
C410        C  0.81478975  0.19269375  0.59617043    -0.22600
C411        C  0.81688820  0.15690397  0.90439312    -0.22600
C412        C  0.81531139  0.19310475  0.90290197    -0.22600
C413        C  0.79596733  0.10891247  0.65314398    -0.18000
C414        C  0.79627979  0.10914763  0.84686933    -0.18000
C415        C  0.78705647  0.23575319  0.84849050    -0.18000
C416        C  0.78678009  0.23555984  0.65075065    -0.18000
H417        H  0.77482705  0.04263364  0.69661961     0.15000
H418        H  0.77500695  0.04272964  0.80400907     0.15000
H419        H  0.75706235  0.29720350  0.69491118     0.15000
H420        H  0.75719904  0.29729590  0.80447120     0.15000
H421        H  0.82847716  0.14085567  0.56591131     0.13200
H422        H  0.82579572  0.21074267  0.56919255     0.13200
H423        H  0.82904971  0.14138013  0.93343705     0.13200
H424        H  0.82634390  0.21123446  0.92966400     0.13200
H425        H  0.80161366  0.14364695  0.74982441     0.26500
H426        H  0.80217907  0.20635651  0.74957736     0.26500
N427        N  0.81800625  0.02837300  0.08780173    -0.27000
N428        N  0.84103265  0.00918040  0.09784274    -0.34800
C429        C  0.83305957  0.97771200  0.11793078     0.01400
C430        C  0.80341246  0.97691102  0.12066799     0.07400
C431        C  0.79446438  0.00952534  0.10103561    -0.05700
H432        H  0.84779601  0.95794586  0.13341089     0.08100
H433        H  0.77274166  0.01972039  0.10015412     0.09300
Cu434      Cu  0.88177995  0.02894175  0.08992051     0.44200
Cu435      Cu  0.82207847  0.08096267  0.06702583     0.42000
Cu436      Cu  0.89510816  0.11822274  0.04197574     0.43900
N437        N  0.92167502  0.04742103  0.06922282    -0.34300
N438        N  0.92738320  0.07890148  0.04816614    -0.28600
C439        C  0.95489449  0.07849368  0.02985992    -0.04700
C440        C  0.96654026  0.04513004  0.04020071     0.07500
C441        C  0.94486320  0.02660488  0.06568049     0.01300
H442        H  0.96491129  0.09976166  0.00715236     0.09000
H443        H  0.94504467  0.99878797  0.07629337     0.08100
N444        N  0.85664143  0.14813912  0.04528741    -0.35800
N445        N  0.83111598  0.13382780  0.05488228    -0.28000
C446        C  0.81086970  0.15904493  0.05379089    -0.03200
C447        C  0.82376632  0.19108774  0.04281451     0.05400
C448        C  0.85289037  0.18333814  0.03747918     0.03500
H449        H  0.78809221  0.15405119  0.05846797     0.08600
H450        H  0.86986323  0.20164760  0.02672864     0.07400
N451        N  0.81741270  0.02791595  0.41126547    -0.27000
N452        N  0.84049369  0.00883448  0.40099993    -0.34800
C453        C  0.83259190  0.97745743  0.38051483     0.01400
C454        C  0.80295236  0.97660022  0.37775387     0.07400
C455        C  0.79392121  0.00908571  0.39775363    -0.05700
H456        H  0.84737852  0.95778944  0.36484986     0.08100
H457        H  0.77217995  0.01922312  0.39870697     0.09300
Cu458      Cu  0.88128710  0.02846453  0.40929386     0.44200
Cu459      Cu  0.82123731  0.08040498  0.43274546     0.42000
Cu460      Cu  0.89424620  0.11745418  0.45822182     0.43900
N461        N  0.92111998  0.04684771  0.43071823    -0.34300
N462        N  0.92667122  0.07828662  0.45203895    -0.28600
C463        C  0.95414343  0.07797159  0.47045206    -0.04700
C464        C  0.96595264  0.04471296  0.45990559     0.07500
C465        C  0.94437980  0.02613697  0.43424118     0.01300
H466        H  0.96403689  0.09923952  0.49330604     0.09000
H467        H  0.94470152  0.99836685  0.42335795     0.08100
N468        N  0.85583991  0.14748972  0.45451813    -0.35800
N469        N  0.83030562  0.13325814  0.44484375    -0.28000
C470        C  0.81012217  0.15856382  0.44562252    -0.03200
C471        C  0.82307512  0.19058697  0.45645142     0.05400
C472        C  0.85215987  0.18272491  0.46204705     0.03500
H473        H  0.78734553  0.15365360  0.44082079     0.08600
H474        H  0.86914783  0.20099030  0.47280937     0.07400
N475        N  0.77982011  0.94015114  0.24904811    -0.36300
N476        N  0.77386732  0.88844096  0.33325387    -0.56800
N477        N  0.76988918  0.83296757  0.24871291    -0.36300
N478        N  0.77428003  0.88859356  0.16457083    -0.56800
C479        C  0.77651119  0.96072563  0.29359374     0.27300
C480        C  0.77670449  0.96083313  0.20458443     0.27300
C481        C  0.76018940  0.81571021  0.29346159     0.27300
C482        C  0.76036561  0.81580061  0.20379706     0.27300
C483        C  0.78823821  0.91440222  0.35970550     0.35900
C484        C  0.78101000  0.85800302  0.35851969     0.35900
C485        C  0.78865426  0.91464827  0.13826898     0.35900
C486        C  0.78139232  0.85823203  0.13901589     0.35900
C487        C  0.76982718  0.99491386  0.27730216    -0.21600
C488        C  0.76994825  0.99498363  0.22101561    -0.21600
C489        C  0.74425995  0.78655213  0.27699793    -0.21600
C490        C  0.74437140  0.78660964  0.21998587    -0.21600
C491        C  0.80424546  0.90043149  0.40221582    -0.22600
C492        C  0.79975720  0.86456226  0.40111827    -0.22600
C493        C  0.80464010  0.90081225  0.09555146    -0.22600
C494        C  0.80011903  0.86493888  0.09634710    -0.22600
C495        C  0.78653761  0.95048812  0.34551446    -0.18000
C496        C  0.78692179  0.95070675  0.15268871    -0.18000
C497        C  0.76835806  0.82542126  0.14990540    -0.18000
C498        C  0.76798291  0.82523702  0.34745574    -0.18000
H499        H  0.76707574  0.01807369  0.30262752     0.15000
H500        H  0.76728992  0.01821349  0.19582418     0.15000
H501        H  0.73422897  0.76699072  0.30312980     0.15000
H502        H  0.73444058  0.76709969  0.19367312     0.15000
H503        H  0.81805078  0.91439901  0.43041495     0.13200
H504        H  0.80979287  0.84524086  0.42734359     0.13200
H505        H  0.81842412  0.91487665  0.06736480     0.13200
H506        H  0.81010371  0.84571173  0.06984511     0.13200
H507        H  0.79009268  0.91565731  0.24903978     0.26500
H508        H  0.78476487  0.85358226  0.24883491     0.26500
C509        C  0.99054284  0.99716982  0.51522144     0.02600
C510        C  0.99239150  0.02822570  0.48253288     0.02600
C511        C  0.01947912  0.04054724  0.46570323    -0.17900
C512        C  0.04462412  0.02213500  0.48001869     0.02600
C513        C  0.04263802  0.99120957  0.51301994     0.02600
C514        C  0.01561196  0.97883111  0.52954582    -0.17900
H515        H  0.01418511  0.95592957  0.55615586     0.04600
H516        H  0.02089267  0.06347425  0.43916598     0.04600
N517        N  0.21651482  0.99547705  0.58367807    -0.27000
N518        N  0.19294347  0.01300808  0.59630282    -0.34800
C519        C  0.19996775  0.04414666  0.61874124     0.01400
C520        C  0.22954619  0.04644635  0.62067845     0.07400
C521        C  0.23948895  0.01505632  0.59807302    -0.05700
H522        H  0.18470447  0.06246987  0.63650091     0.08100
H523        H  0.26152591  0.00596041  0.59644289     0.09300
Cu524      Cu  0.15281867  0.99128073  0.58956733     0.44200
Cu525      Cu  0.21386360  0.94338257  0.55847923     0.42000
Cu526      Cu  0.14075402  0.90309683  0.53934794     0.43900
N527        N  0.11314885  0.97276158  0.56792637    -0.34300
N528        N  0.10791084  0.94140814  0.54608869    -0.28600
C529        C  0.08067758  0.94164561  0.52659555    -0.04700
C530        C  0.06876658  0.97485980  0.53676328     0.07500
C531        C  0.08993097  0.99345073  0.56351639     0.01300
H532        H  0.07115286  0.92049666  0.50292493     0.09000
H533        H  0.08948585  0.02125211  0.57419759     0.08100
N534        N  0.17988209  0.87476556  0.54250821    -0.35800
N535        N  0.20531121  0.88992644  0.54967853    -0.28000
C536        C  0.22583285  0.86500791  0.55008072    -0.03200
C537        C  0.21320366  0.83236114  0.54261304     0.05400
C538        C  0.18397775  0.83942202  0.53768310     0.03500
H539        H  0.24858759  0.87052245  0.55346878     0.08600
H540        H  0.16710901  0.82045239  0.52942092     0.07400
N541        N  0.21683159  0.99519850  0.91915801    -0.27000
N542        N  0.19332050  0.01259341  0.90577224    -0.34800
C543        C  0.20043566  0.04369653  0.88332983     0.01400
C544        C  0.23000676  0.04610015  0.88214139     0.07400
C545        C  0.23986824  0.01481614  0.90514293    -0.05700
H546        H  0.18527336  0.06191478  0.86506901     0.08100
H547        H  0.26191487  0.00581273  0.90730689     0.09300
Cu548      Cu  0.15319488  0.99083539  0.91133685     0.44200
Cu549      Cu  0.21417564  0.94321900  0.94495622     0.42000
Cu550      Cu  0.14114169  0.90280051  0.96223720     0.43900
N551        N  0.11350603  0.97229055  0.93264077    -0.34300
N552        N  0.10825516  0.94103285  0.95482121    -0.28600
C553        C  0.08099956  0.94136133  0.97431542    -0.04700
C554        C  0.06910406  0.97452945  0.96377541     0.07500
C555        C  0.09029077  0.99300348  0.93683291     0.01300
H556        H  0.07146085  0.92034406  0.99828953     0.09000
H557        H  0.08988156  0.02078018  0.92598358     0.08100
N558        N  0.18032628  0.87448176  0.96022832    -0.35800
N559        N  0.20578448  0.88971429  0.95374885    -0.28000
C560        C  0.22636011  0.86485008  0.95388363    -0.03200
C561        C  0.21373029  0.83215497  0.96100197     0.05400
C562        C  0.18444853  0.83914431  0.96515420     0.03500
H563        H  0.24912899  0.87042554  0.95102204     0.08600
H564        H  0.16754006  0.82011818  0.97286900     0.07400
N565        N  0.25235281  0.08216986  0.75152607    -0.36300
N566        N  0.25871765  0.13419918  0.66737046    -0.56800
N567        N  0.26375027  0.18966609  0.75198610    -0.36300
N568        N  0.25932213  0.13389178  0.83616807    -0.56800
C569        C  0.25449427  0.06139021  0.70690323     0.27300
C570        C  0.25482082  0.06126324  0.79592763     0.27300
C571        C  0.27311975  0.20708005  0.70708655     0.27300
C572        C  0.27333811  0.20694317  0.79680426     0.27300
C573        C  0.24429016  0.10842499  0.64048661     0.35900
C574        C  0.25226213  0.16474703  0.64163788     0.35900
C575        C  0.24501091  0.10800200  0.86306545     0.35900
C576        C  0.25293434  0.16431027  0.86234765     0.35900
C577        C  0.25953312  0.02673840  0.72309667    -0.21600
C578        C  0.25973451  0.02666263  0.77938750    -0.21600
C579        C  0.28876191  0.23651717  0.72339043    -0.21600
C580        C  0.28889275  0.23643570  0.78037715    -0.21600
C581        C  0.22895781  0.12259779  0.59724575    -0.22600
C582        C  0.23387813  0.15838337  0.59837979    -0.22600
C583        C  0.22982761  0.12196012  0.90672676    -0.22600
C584        C  0.23471412  0.15774482  0.90585797    -0.22600
C585        C  0.24530544  0.07226696  0.65466939    -0.18000
C586        C  0.24591240  0.07193326  0.84844415    -0.18000
C587        C  0.26593465  0.19713627  0.85097310    -0.18000
C588        C  0.26542727  0.19747527  0.65300922    -0.18000
H589        H  0.26092997  0.00343396  0.69763481     0.15000
H590        H  0.26128764  0.00331177  0.80473352     0.15000
H591        H  0.29849573  0.25624971  0.69715674     0.15000
H592        H  0.29875494  0.25608372  0.80654105     0.15000
H593        H  0.21526337  0.10880421  0.56860178     0.13200
H594        H  0.22425471  0.17781958  0.57183897     0.13200
H595        H  0.21621556  0.10802538  0.93542073     0.13200
H596        H  0.22512210  0.17706793  0.93265870     0.13200
H597        H  0.24338128  0.10740090  0.75177992     0.26500
H598        H  0.24911709  0.16880948  0.75207193     0.26500
N599        N  0.21972541  0.99406181  0.41585547    -0.27000
N600        N  0.19498912  0.97858833  0.40494858    -0.34800
C601        C  0.19992099  0.94663304  0.38342455     0.01400
C602        C  0.22924836  0.94167280  0.38052545     0.07400
C603        C  0.24130543  0.97225733  0.40152968    -0.05700
H604        H  0.18342908  0.92945232  0.36702978     0.08100
H605        H  0.26385480  0.97923084  0.40247312     0.09300
Cu606      Cu  0.15599171  0.00329115  0.41182693     0.44200
Cu607      Cu  0.22141907  0.04629069  0.43854119     0.42000
Cu608      Cu  0.15120905  0.09351551  0.45322527     0.43900
N609        N  0.11761912  0.02743248  0.42892893    -0.34300
N610        N  0.11502773  0.06015406  0.44735359    -0.28600
C611        C  0.08761248  0.06475559  0.46454390    -0.04700
C612        C  0.07266407  0.03322962  0.45648299     0.07500
C613        C  0.09240041  0.01057185  0.43308613     0.01300
H614        H  0.07981483  0.08810450  0.48544125     0.09000
H615        H  0.08938378  0.98272044  0.42445456     0.08100
N616        N  0.19217890  0.11747176  0.45382487    -0.35800
N617        N  0.21672479  0.09998839  0.44847486    -0.28000
C618        C  0.23883821  0.12269765  0.45135975    -0.03200
C619        C  0.22804444  0.15623938  0.45906836     0.05400
C620        C  0.19838387  0.15210198  0.46062188     0.03500
H621        H  0.26124011  0.11503519  0.44992785     0.08600
H622        H  0.18256630  0.17256151  0.46795572     0.07400
N623        N  0.21989983  0.99374664  0.08662938    -0.27000
N624        N  0.19515679  0.97821802  0.09739199    -0.34800
C625        C  0.20008201  0.94620716  0.11872186     0.01400
C626        C  0.22941417  0.94126316  0.12163700     0.07400
C627        C  0.24147174  0.97191601  0.10079721    -0.05700
H628        H  0.18357817  0.92899690  0.13507671     0.08100
H629        H  0.26401212  0.97894567  0.09999150     0.09300
Cu630      Cu  0.15615807  0.00294262  0.09054095     0.44200
Cu631      Cu  0.22160735  0.04611952  0.06477300     0.42000
Cu632      Cu  0.15146145  0.09335916  0.04973141     0.43900
N633        N  0.11786897  0.02701588  0.07260572    -0.34300
N634        N  0.11533576  0.05982800  0.05453039    -0.28600
C635        C  0.08802760  0.06444776  0.03687336    -0.04700
C636        C  0.07309690  0.03283007  0.04419547     0.07500
C637        C  0.09271743  0.01009489  0.06767797     0.01300
H638        H  0.08030040  0.08792307  0.01625027     0.09000
H639        H  0.08967120  0.98221461  0.07605799     0.08100
N640        N  0.19241280  0.11735930  0.05000559    -0.35800
N641        N  0.21693234  0.09986606  0.05558547    -0.28000
C642        C  0.23905986  0.12257314  0.05306500    -0.03200
C643        C  0.22830805  0.15612262  0.04530694     0.05400
C644        C  0.19865285  0.15199753  0.04339801     0.03500
H645        H  0.26145366  0.11488887  0.05457598     0.08600
H646        H  0.18287728  0.17245627  0.03580148     0.07400
N647        N  0.24859378  0.90251427  0.25124600    -0.36300
N648        N  0.24984783  0.85014924  0.16767081    -0.56800
N649        N  0.24849168  0.79410454  0.25176352    -0.36300
N650        N  0.24968864  0.85040903  0.33527769    -0.56800
C651        C  0.25360043  0.92253092  0.20668216     0.27300
C652        C  0.25353391  0.92266879  0.29565769     0.27300
C653        C  0.25698706  0.77594671  0.20702385     0.27300
C654        C  0.25691819  0.77609041  0.29665459     0.27300
C655        C  0.23825359  0.87782166  0.14056053     0.35900
C656        C  0.24005414  0.82090422  0.14240844     0.35900
C657        C  0.23811302  0.87818929  0.36219069     0.35900
C658        C  0.23993585  0.82126952  0.36093476     0.35900
C659        C  0.26297315  0.95576493  0.22290520    -0.21600
C660        C  0.26292627  0.95585168  0.27920825    -0.21600
C661        C  0.27078259  0.74516792  0.22344560    -0.21600
C662        C  0.27073775  0.74525867  0.28048594    -0.21600
C663        C  0.22143802  0.86609096  0.09755191    -0.22600
C664        C  0.22245360  0.82987085  0.09912833    -0.22600
C665        C  0.22134741  0.86663783  0.40546993    -0.22600
C666        C  0.22237569  0.83041414  0.40426282    -0.22600
C667        C  0.24314854  0.91341661  0.15458978    -0.18000
C668        C  0.24301855  0.91372489  0.34781213    -0.18000
C669        C  0.25029039  0.78710484  0.35053994    -0.18000
C670        C  0.25042567  0.78678652  0.15305476    -0.18000
H671        H  0.26756043  0.97844739  0.19748461     0.15000
H672        H  0.26745994  0.97860506  0.30449634     0.15000
H673        H  0.27955148  0.72472862  0.19728166     0.15000
H674        H  0.27946900  0.72490453  0.30681824     0.15000
H675        H  0.20934504  0.88182303  0.06873243     0.13200
H676        H  0.21103955  0.81192055  0.07263135     0.13200
H677        H  0.20930906  0.88248783  0.43427614     0.13200
H678        H  0.21100883  0.81257201  0.43105230     0.13200
H679        H  0.23637781  0.87939118  0.25133586     0.26500
H680        H  0.23532341  0.81645120  0.25166194     0.26500
C681        C  0.99291062  0.02851568  0.01749318     0.02600
C682        C  0.99096547  0.99750873  0.98471031     0.02600
C683        C  0.01597202  0.97894041  0.97060061    -0.17900
C684        C  0.04301069  0.99103359  0.98744272     0.02600
C685        C  0.04507754  0.02192675  0.02047914     0.02600
C686        C  0.02000486  0.04057128  0.03456676    -0.17900
H687        H  0.02146252  0.06346182  0.06116222     0.04600
H688        H  0.01450383  0.95607181  0.94394190     0.04600
O689        O  0.75537123  0.72298176  0.46797366    -0.72600
O690        O  0.80142473  0.80666033  0.51648948    -0.73600
O691        O  0.77559391  0.74797755  0.57000659    -0.62200
O692        O  0.78102148  0.78210439  0.41411688    -0.70600
O693        O  0.74021770  0.81166147  0.42599150    -0.70200
O694        O  0.73542042  0.77863022  0.58294042    -0.61400
O695        O  0.76116160  0.83747200  0.52728405    -0.73900
O696        O  0.71451173  0.75216165  0.48085540    -0.72700
Cu697      Cu  0.77968319  0.76386521  0.49178323     1.04600
Cu698      Cu  0.73638262  0.79606760  0.50464191     1.04300
C699        C  0.72791787  0.72380852  0.46782334     0.93600
C700        C  0.78862117  0.83554282  0.52826971     0.92700
C701        C  0.75445206  0.75703135  0.60042215     0.84900
C702        C  0.76188099  0.80345547  0.39633576     0.91100
O703        O  0.24207997  0.71101784  0.57442803    -0.72600
O704        O  0.23682543  0.74455161  0.41787335    -0.73600
O705        O  0.26310217  0.68615370  0.47250384    -0.62200
O706        O  0.21583826  0.77057420  0.51995258    -0.70600
O707        O  0.25652353  0.80020968  0.53218577    -0.70200
O708        O  0.30333130  0.71692926  0.48383655    -0.61400
O709        O  0.27703816  0.77517821  0.43045678    -0.73900
O710        O  0.28255849  0.74116501  0.58648986    -0.72700
Cu711      Cu  0.23802337  0.72697155  0.49591294     1.04600
Cu712      Cu  0.28117811  0.75946353  0.50869426     1.04300
C713        C  0.26367477  0.71936149  0.60409992     0.93600
C714        C  0.25588644  0.76604894  0.40020738     0.92700
C715        C  0.29055604  0.68818513  0.47124880     0.84900
C716        C  0.22907300  0.79918617  0.53218297     0.91100
O717        O  0.26334139  0.68570665  0.03109590    -0.72600
O718        O  0.21627900  0.77034237  0.98368993    -0.73600
O719        O  0.24247794  0.71072538  0.92927833    -0.62200
O720        O  0.23706445  0.74418797  0.08580405    -0.70600
O721        O  0.27736888  0.77468370  0.07333903    -0.70200
O722        O  0.28299978  0.74082675  0.91724067    -0.61400
O723        O  0.25701721  0.79992963  0.97167475    -0.73900
O724        O  0.30361184  0.71642417  0.01974220    -0.72700
Cu725      Cu  0.23835125  0.72664122  0.00775518     1.04600
Cu726      Cu  0.28156821  0.75905295  0.99506025     1.04300
C727        C  0.29080089  0.68767635  0.03222982     0.93600
C728        C  0.22956400  0.79895124  0.97154328     0.92700
C729        C  0.26411025  0.71906396  0.89962121     0.84900
C730        C  0.25613132  0.76562959  0.10351932     0.91100
O731        O  0.78150814  0.78236115  0.08311929    -0.72600
O732        O  0.77595582  0.74793771  0.92741641    -0.73600
O733        O  0.80191967  0.80668129  0.98056209    -0.62200
O734        O  0.75579172  0.72316221  0.02965087    -0.70600
O735        O  0.71492471  0.75229393  0.01678548    -0.70200
O736        O  0.76167109  0.83752887  0.96999359    -0.61400
O737        O  0.73582585  0.77867074  0.91460003    -0.73900
O738        O  0.74067108  0.81184542  0.07139673    -0.72700
Cu739      Cu  0.78012468  0.76397011  0.00554098     1.04600
Cu740      Cu  0.73683132  0.79617792  0.99281986     1.04300
C741        C  0.76234663  0.80369677  0.10095374     0.93600
C742        C  0.75479954  0.75697439  0.89711407     0.92700
C743        C  0.78913310  0.83557998  0.96888203     0.84900
C744        C  0.72833879  0.72396018  0.02985160     0.91100
O745        O  0.29379706  0.21065834  0.92945674    -0.72600
O746        O  0.29910673  0.24426071  0.08596396    -0.73600
O747        O  0.27279568  0.18582665  0.03142739    -0.62200
O748        O  0.32006304  0.27022583  0.98380637    -0.70600
O749        O  0.27937585  0.29987253  0.97166355    -0.70200
O750        O  0.23257397  0.21660384  0.02000340    -0.61400
O751        O  0.25887062  0.27484312  0.07340466    -0.73900
O752        O  0.25334126  0.24085051  0.91737264    -0.72700
Cu753      Cu  0.29787915  0.22663550  0.00794403     1.04600
Cu754      Cu  0.25472568  0.25913136  0.99516414     1.04300
C755        C  0.27221944  0.21904202  0.89976725     0.93600
C756        C  0.28004410  0.26575614  0.10363053     0.92700
C757        C  0.24534065  0.18786172  0.03262782     0.84900
C758        C  0.30682541  0.29884111  0.97159537     0.91100
O759        O  0.75430703  0.28208888  0.41524166    -0.72600
O760        O  0.75989680  0.24786346  0.57102416    -0.73600
O761        O  0.73401366  0.30659314  0.51774711    -0.62200
O762        O  0.78000107  0.22291931  0.46883270    -0.70600
O763        O  0.82089145  0.25203952  0.48150458    -0.70200
O764        O  0.77430139  0.33738521  0.52816692    -0.61400
O765        O  0.80007354  0.27852263  0.58369178    -0.73900
O766        O  0.79516634  0.31155878  0.42677040    -0.72700
Cu767      Cu  0.75572379  0.26380236  0.49286317     1.04600
Cu768      Cu  0.79905328  0.29596583  0.50539955     1.04300
C769        C  0.77345840  0.30340029  0.39729971     0.93600
C770        C  0.78107183  0.25689067  0.60127818     0.92700
C771        C  0.74684068  0.33548246  0.52932123     0.84900
C772        C  0.80745538  0.22370128  0.46856512     0.91100
O773        O  0.25284328  0.24117495  0.58663607    -0.72600
O774        O  0.25842504  0.27505408  0.43055787    -0.73600
O775        O  0.23219606  0.21678021  0.48413851    -0.62200
O776        O  0.27885062  0.30026904  0.53219197    -0.70600
O777        O  0.31957080  0.27067403  0.52000324    -0.70200
O778        O  0.27247295  0.18607684  0.47278478    -0.61400
O779        O  0.29870089  0.24452092  0.41798111    -0.73900
O780        O  0.29337144  0.21109521  0.57456899    -0.72700
Cu781      Cu  0.25425989  0.25941021  0.50882671     1.04600
Cu782      Cu  0.29746732  0.22699418  0.49604964     1.04300
C783        C  0.27173634  0.21941220  0.60423907     0.93600
C784        C  0.27962690  0.26597044  0.40031303     0.92700
C785        C  0.24501603  0.18803918  0.47163600     0.84900
C786        C  0.30630569  0.29928211  0.53220488     0.91100
O787        O  0.80038170  0.27879413  0.91528740    -0.72600
O788        O  0.79570664  0.31195487  0.07212816    -0.73600
O789        O  0.82143701  0.25246658  0.01733941    -0.62200
O790        O  0.77459336  0.33762623  0.97086433    -0.70600
O791        O  0.73438304  0.30674175  0.98186515    -0.70200
O792        O  0.78062277  0.22323907  0.03049070    -0.61400
O793        O  0.75494903  0.28233921  0.08424970    -0.73900
O794        O  0.76027941  0.24804083  0.92845934    -0.72700
Cu795      Cu  0.79947015  0.29630234  0.99351812     1.04600
Cu796      Cu  0.75622773  0.26402311  0.00663312     1.04300
C797        C  0.78138279  0.25710846  0.89795469     0.93600
C798        C  0.77409977  0.30371723  0.10190963     0.92700
C799        C  0.80807472  0.22411309  0.03054237     0.84900
C800        C  0.74713438  0.33564254  0.96997389     0.91100
loop_ 
_geom_bond_atom_site_label_1 
_geom_bond_atom_site_label_2 
_geom_bond_distance 
_geom_bond_site_symmetry_2 
_ccdc_geom_bond_type 
N1            N2   1.318       .  A
N1            C5   1.345       .  A
N1           Cu9   2.058       .  S
N2            C3   1.337       .  A
N2           Cu8   2.044       .  S
C3            C4   1.378       .  A
C3            H6   1.082       .  S
C4            C5   1.384       .  A
C4           C70   1.471       .  S
C5            H7   1.082       .  S
Cu8          N11   2.043       .  S
Cu9          N19   2.062       .  S
Cu10         N12   2.099       .  S
Cu10         N18   2.101       .  S
N11          N12   1.321       .  A
N11          C15   1.338       .  A
N12          C13   1.352       .  A
C13          C14   1.392       .  A
C13          H16   1.082       .  S
C14          C15   1.377       .  A
C14         C165   1.481       .  S
C15          H17   1.082       .  S
N18          N19   1.325       .  A
N18          C22   1.348       .  A
N19          C20   1.343       .  A
C20          C21   1.378       .  A
C20          H23   1.082       .  S
C21          C22   1.387       .  A
C21         C771   1.470       .  S
C22          H24   1.082       .  S
N25          N26   1.318       .  A
N25          C29   1.346       .  A
N25         Cu33   2.060       .  S
N26          C27   1.337       .  A
N26         Cu32   2.045       .  S
C27          C28   1.378       .  A
C27          H30   1.082       .  S
C28          C29   1.384       .  A
C28          C69   1.472       .  S
C29          H31   1.082       .  S
Cu32         N35   2.044       .  S
Cu33         N43   2.064       .  S
Cu34         N36   2.098       .  S
Cu34         N42   2.100       .  S
N35          N36   1.321       .  A
N35          C39   1.338       .  A
N36          C37   1.352       .  A
C37          C38   1.391       .  A
C37          H40   1.082       .  S
C38          C39   1.377       .  A
C38         C337   1.480       .  S
C39          H41   1.082       .  S
N42          N43   1.325       .  A
N42          C46   1.348       .  A
N43          C44   1.343       .  A
C44          C45   1.378       .  A
C44          H47   1.082       .  S
C45          C46   1.387       .  A
C45         C800   1.470       .  S
C46          H48   1.082       .  S
N49          C54   1.347       .  A
N49          C53   1.347       .  A
N49          H81   1.041       .  S
N50          C57   1.351       .  A
N50          C58   1.346       .  A
N51          C56   1.351       .  A
N51          C55   1.351       .  A
N51          H82   1.042       .  S
N52          C59   1.351       .  A
N52          C60   1.346       .  A
C53          C61   1.387       .  A
C53          C69   1.407       .  A
C54          C70   1.408       .  A
C54          C62   1.387       .  A
C55          C63   1.388       .  A
C55          C72   1.417       .  A
C56          C71   1.417       .  A
C56          C64   1.388       .  A
C57          C69   1.406       .  A
C57          C65   1.384       .  A
C58          C72   1.403       .  A
C58          C66   1.382       .  A
C59          C67   1.384       .  A
C59          C70   1.406       .  A
C60          C68   1.382       .  A
C60          C71   1.402       .  A
C61          C62   1.378       .  A
C61          H73   1.081       .  S
C62          H74   1.080       .  S
C63          C64   1.395       .  A
C63          H75   1.082       .  S
C64          H76   1.082       .  S
C65          C66   1.370       .  A
C65          H77   1.081       .  S
C66          H78   1.078       .  S
C67          C68   1.370       .  A
C67          H79   1.081       .  S
C68          H80   1.078       .  S
C71         C701   1.478       .  S
C72         C742   1.478       .  S
N83          N84   1.317       .  A
N83          C87   1.345       .  A
N83         Cu91   2.059       .  S
N84          C85   1.338       .  A
N84         Cu90   2.046       .  S
C85          C86   1.381       .  A
C85          H88   1.082       .  S
C86          C87   1.386       .  A
C86         C152   1.476       .  S
C87          H89   1.082       .  S
Cu90         N93   2.046       .  S
Cu91        N101   2.062       .  S
Cu92         N94   2.117       .  S
Cu92        N100   2.118       .  S
N93          N94   1.322       .  A
N93          C97   1.337       .  A
N94          C95   1.355       .  A
C95          C96   1.395       .  A
C95          H98   1.082       .  S
C96          C97   1.376       .  A
C96         C166   1.485       .  S
C97          H99   1.082       .  S
N100        N101   1.325       .  A
N100        C104   1.354       .  A
N101        C102   1.340       .  A
C102        C103   1.377       .  A
C102        H105   1.082       .  S
C103        C104   1.392       .  A
C103        C699   1.476       .  S
C104        H106   1.082       .  S
N107        N108   1.317       .  A
N107        C111   1.345       .  A
N107       Cu115   2.059       .  S
N108        C109   1.338       .  A
N108       Cu114   2.047       .  S
C109        C110   1.381       .  A
C109        H112   1.082       .  S
C110        C111   1.386       .  A
C110        C151   1.476       .  S
C111        H113   1.082       .  S
Cu114       N117   2.047       .  S
Cu115       N125   2.062       .  S
Cu116       N118   2.117       .  S
Cu116       N124   2.118       .  S
N117        N118   1.322       .  A
N117        C121   1.338       .  A
N118        C119   1.355       .  A
C119        C120   1.395       .  A
C119        H122   1.082       .  S
C120        C121   1.376       .  A
C120        C338   1.486       .  S
C121        H123   1.082       .  S
N124        N125   1.325       .  A
N124        C128   1.354       .  A
N125        C126   1.340       .  A
C126        C127   1.377       .  A
C126        H129   1.082       .  S
C127        C128   1.392       .  A
C127        C744   1.476       .  S
C128        H130   1.082       .  S
N131        C136   1.347       .  A
N131        C135   1.347       .  A
N131        H163   1.041       .  S
N132        C139   1.352       .  A
N132        C140   1.347       .  A
N133        C138   1.351       .  A
N133        C137   1.351       .  A
N133        H164   1.041       .  S
N134        C141   1.352       .  A
N134        C142   1.347       .  A
C135        C143   1.386       .  A
C135        C151   1.407       .  A
C136        C152   1.408       .  A
C136        C144   1.387       .  A
C137        C145   1.387       .  A
C137        C154   1.416       .  A
C138        C153   1.417       .  A
C138        C146   1.388       .  A
C139        C151   1.408       .  A
C139        C147   1.384       .  A
C140        C154   1.404       .  A
C140        C148   1.382       .  A
C141        C149   1.384       .  A
C141        C152   1.409       .  A
C142        C150   1.382       .  A
C142        C153   1.405       .  A
C143        C144   1.377       .  A
C143        H155   1.079       .  S
C144        H156   1.079       .  S
C145        C146   1.394       .  A
C145        H157   1.082       .  S
C146        H158   1.082       .  S
C147        C148   1.371       .  A
C147        H159   1.080       .  S
C148        H160   1.078       .  S
C149        C150   1.371       .  A
C149        H161   1.080       .  S
C150        H162   1.078       .  S
C153        C769   1.478       .  S
C154        C798   1.478       .  S
C165        C166   1.422       .  A
C165        C170   1.401       .  A
C166        C167   1.404       .  A
C167        C168   1.405       .  A
C167        H172   1.084       .  S
C168        C169   1.422       .  A
C168        C186   1.486       .  S
C169        C170   1.401       .  A
C169        C268   1.482       .  S
C170        H171   1.084       .  S
N173        N174   1.318       .  A
N173        C177   1.345       .  A
N173       Cu181   2.051       .  S
N174        C175   1.336       .  A
N174       Cu180   2.047       .  S
C175        C176   1.379       .  A
C175        H178   1.082       .  S
C176        C177   1.383       .  A
C176        C241   1.471       .  S
C177        H179   1.082       .  S
Cu180       N183   2.048       .  S
Cu181       N191   2.054       .  S
Cu182       N184   2.108       .  S
Cu182       N190   2.110       .  S
N183        N184   1.321       .  A
N183        C187   1.339       .  A
N184        C185   1.354       .  A
C185        C186   1.393       .  A
C185        H188   1.082       .  S
C186        C187   1.379       .  A
C187        H189   1.082       .  S
N190        N191   1.325       .  A
N190        C194   1.350       .  A
N191        C192   1.341       .  A
C192        C193   1.375       .  A
C192        H195   1.082       .  S
C193        C194   1.389       .  A
C193        C715   1.470       .  S
C194        H196   1.082       .  S
N197        N198   1.318       .  A
N197        C201   1.344       .  A
N197       Cu205   2.050       .  S
N198        C199   1.336       .  A
N198       Cu204   2.047       .  S
C199        C200   1.379       .  A
C199        H202   1.082       .  S
C200        C201   1.383       .  A
C200        C242   1.471       .  S
C201        H203   1.082       .  S
Cu204       N207   2.047       .  S
Cu205       N215   2.053       .  S
Cu206       N208   2.107       .  S
Cu206       N214   2.110       .  S
N207        N208   1.321       .  A
N207        C211   1.339       .  A
N208        C209   1.353       .  A
C209        C210   1.393       .  A
C209        H212   1.082       .  S
C210        C211   1.379       .  A
C210        C340   1.485       .  S
C211        H213   1.082       .  S
N214        N215   1.325       .  A
N214        C218   1.350       .  A
N215        C216   1.341       .  A
C216        C217   1.375       .  A
C216        H219   1.082       .  S
C217        C218   1.389       .  A
C217        C727   1.470       .  S
C218        H220   1.082       .  S
N221        C226   1.346       .  A
N221        C225   1.346       .  A
N221        H253   1.042       .  S
N222        C229   1.350       .  A
N222        C230   1.345       .  A
N223        C228   1.350       .  A
N223        C227   1.350       .  A
N223        H254   1.043       .  S
N224        C231   1.350       .  A
N224        C232   1.345       .  A
C225        C233   1.387       .  A
C225        C241   1.407       .  A
C226        C242   1.407       .  A
C226        C234   1.387       .  A
C227        C235   1.387       .  A
C227        C244   1.416       .  A
C228        C243   1.416       .  A
C228        C236   1.387       .  A
C229        C241   1.406       .  A
C229        C237   1.384       .  A
C230        C244   1.400       .  A
C230        C238   1.381       .  A
C231        C239   1.385       .  A
C231        C242   1.406       .  A
C232        C240   1.381       .  A
C232        C243   1.400       .  A
C233        C234   1.377       .  A
C233        H245   1.080       .  S
C234        H246   1.080       .  S
C235        C236   1.395       .  A
C235        H247   1.082       .  S
C236        H248   1.082       .  S
C237        C238   1.369       .  A
C237        H249   1.080       .  S
C238        H250   1.078       .  S
C239        C240   1.369       .  A
C239        H251   1.080       .  S
C240        H252   1.078       .  S
C243        C756   1.475       .  S
C244        C784   1.475       .  S
N255        N256   1.317       .  A
N255        C259   1.346       .  A
N255       Cu263   2.064       .  S
N256        C257   1.338       .  A
N256       Cu262   2.044       .  S
C257        C258   1.379       .  A
C257        H260   1.082       .  S
C258        C259   1.387       .  A
C258        C323   1.475       .  S
C259        H261   1.082       .  S
Cu262       N265   2.042       .  S
Cu263       N273   2.068       .  S
Cu264       N266   2.111       .  S
Cu264       N272   2.114       .  S
N265        N266   1.322       .  A
N265        C269   1.337       .  A
N266        C267   1.354       .  A
C267        C268   1.393       .  A
C267        H270   1.082       .  S
C268        C269   1.375       .  A
C269        H271   1.082       .  S
N272        N273   1.326       .  A
N272        C276   1.354       .  A
N273        C274   1.341       .  A
C274        C275   1.378       .  A
C274        H277   1.082       .  S
C275        C276   1.391       .  A
C275        C786   1.477       .  S
C276        H278   1.082       .  S
N279        N280   1.317       .  A
N279        C283   1.347       .  A
N279       Cu287   2.066       .  S
N280        C281   1.338       .  A
N280       Cu286   2.045       .  S
C281        C282   1.379       .  A
C281        H284   1.082       .  S
C282        C283   1.387       .  A
C282        C324   1.477       .  S
C283        H285   1.082       .  S
Cu286       N289   2.043       .  S
Cu287       N297   2.070       .  S
Cu288       N290   2.110       .  S
Cu288       N296   2.113       .  S
N289        N290   1.322       .  A
N289        C293   1.337       .  A
N290        C291   1.354       .  A
C291        C292   1.394       .  A
C291        H294   1.082       .  S
C292        C293   1.375       .  A
C292        C341   1.482       .  S
C293        H295   1.082       .  S
N296        N297   1.326       .  A
N296        C300   1.353       .  A
N297        C298   1.341       .  A
C298        C299   1.378       .  A
C298        H301   1.082       .  S
C299        C300   1.391       .  A
C299        C758   1.476       .  S
C300        H302   1.082       .  S
N303        C308   1.348       .  A
N303        C307   1.348       .  A
N303        H335   1.040       .  S
N304        C311   1.353       .  A
N304        C312   1.348       .  A
N305        C310   1.352       .  A
N305        C309   1.352       .  A
N305        H336   1.041       .  S
N306        C313   1.353       .  A
N306        C314   1.348       .  A
C307        C315   1.387       .  A
C307        C323   1.408       .  A
C308        C324   1.409       .  A
C308        C316   1.387       .  A
C309        C317   1.387       .  A
C309        C326   1.418       .  A
C310        C325   1.418       .  A
C310        C318   1.387       .  A
C311        C323   1.409       .  A
C311        C319   1.384       .  A
C312        C326   1.407       .  A
C312        C320   1.382       .  A
C313        C321   1.384       .  A
C313        C324   1.410       .  A
C314        C322   1.382       .  A
C314        C325   1.407       .  A
C315        C316   1.377       .  A
C315        H327   1.080       .  S
C316        H328   1.080       .  S
C317        C318   1.394       .  A
C317        H329   1.082       .  S
C318        H330   1.082       .  S
C319        C320   1.370       .  A
C319        H331   1.081       .  S
C320        H332   1.077       .  S
C321        C322   1.371       .  A
C321        H333   1.081       .  S
C322        H334   1.077       .  S
C325        C729   1.481       .  S
C326        C713   1.482       .  S
C337        C338   1.422   1_556  A
C337        C342   1.401       .  A
C338        C339   1.404       .  A
C339        C340   1.405       .  A
C339        H344   1.084       .  S
C340        C341   1.423   1_554  A
C341        C342   1.400       .  A
C342        H343   1.084       .  S
N345        N346   1.318       .  A
N345        C349   1.346       .  A
N345       Cu353   2.059   1_545  S
N346        C347   1.337       .  A
N346       Cu352   2.045       .  S
C347        C348   1.378       .  A
C347        H350   1.082       .  S
C348        C349   1.384       .  A
C348        C413   1.471       .  S
C349        H351   1.082       .  S
Cu352       N355   2.044   1_545  S
Cu353       N363   2.063       .  S
Cu354       N356   2.098       .  S
Cu354       N362   2.100       .  S
N355        N356   1.321       .  A
N355        C359   1.338   1_565  A
N356        C357   1.352       .  A
C357        C358   1.391       .  A
C357        H360   1.082       .  S
C358        C359   1.377   1_565  A
C358        C509   1.480       .  S
C359        H361   1.082       .  S
N362        N363   1.325       .  A
N362        C366   1.347       .  A
N363        C364   1.343       .  A
C364        C365   1.378       .  A
C364        H367   1.082       .  S
C365        C366   1.387       .  A
C365        C700   1.470       .  S
C366        H368   1.082       .  S
N369        N370   1.318       .  A
N369        C373   1.346       .  A
N369       Cu377   2.058   1_545  S
N370        C371   1.337       .  A
N370       Cu376   2.044       .  S
C371        C372   1.378       .  A
C371        H374   1.082       .  S
C372        C373   1.384       .  A
C372        C414   1.471       .  S
C373        H375   1.082       .  S
Cu376       N379   2.043   1_545  S
Cu377       N387   2.062       .  S
Cu378       N380   2.099       .  S
Cu378       N386   2.102       .  S
N379        N380   1.321       .  A
N379        C383   1.338   1_565  A
N380        C381   1.352       .  A
C381        C382   1.392       .  A
C381        H384   1.082       .  S
C382        C383   1.377   1_565  A
C382        C682   1.481       .  S
C383        H385   1.082       .  S
N386        N387   1.325       .  A
N386        C390   1.348       .  A
N387        C388   1.343       .  A
C388        C389   1.378       .  A
C388        H391   1.082       .  S
C389        C390   1.387       .  A
C389        C743   1.470       .  S
C390        H392   1.082       .  S
N393        C398   1.348       .  A
N393        C397   1.347       .  A
N393        H425   1.038       .  S
N394        C401   1.351       .  A
N394        C402   1.346       .  A
N395        C400   1.352       .  A
N395        C399   1.352       .  A
N395        H426   1.038       .  S
N396        C403   1.351       .  A
N396        C404   1.346       .  A
C397        C405   1.387       .  A
C397        C413   1.407       .  A
C398        C414   1.408       .  A
C398        C406   1.387       .  A
C399        C407   1.387       .  A
C399        C416   1.417       .  A
C400        C415   1.417       .  A
C400        C408   1.387       .  A
C401        C413   1.406       .  A
C401        C409   1.384       .  A
C402        C416   1.403       .  A
C402        C410   1.382       .  A
C403        C411   1.384       .  A
C403        C414   1.406       .  A
C404        C412   1.382       .  A
C404        C415   1.402       .  A
C405        C406   1.378       .  A
C405        H417   1.081       .  S
C406        H418   1.081       .  S
C407        C408   1.395       .  A
C407        H419   1.082       .  S
C408        H420   1.082       .  S
C409        C410   1.370       .  A
C409        H421   1.081       .  S
C410        H422   1.078       .  S
C411        C412   1.370       .  A
C411        H423   1.081       .  S
C412        H424   1.078       .  S
C415        C797   1.478       .  S
C416        C770   1.478       .  S
N427        N428   1.317       .  A
N427        C431   1.345       .  A
N427       Cu435   2.059       .  S
N428        C429   1.338   1_545  A
N428       Cu434   2.046       .  S
C429        C430   1.381       .  A
C429        H432   1.082       .  S
C430        C431   1.386   1_565  A
C430        C496   1.476       .  S
C431        H433   1.082       .  S
Cu434       N437   2.046       .  S
Cu435       N445   2.062       .  S
Cu436       N438   2.117       .  S
Cu436       N444   2.118       .  S
N437        N438   1.322       .  A
N437        C441   1.337       .  A
N438        C439   1.355       .  A
C439        C440   1.395       .  A
C439        H442   1.082       .  S
C440        C441   1.376       .  A
C440        C681   1.485       .  S
C441        H443   1.082   1_545  S
N444        N445   1.325       .  A
N444        C448   1.354       .  A
N445        C446   1.340       .  A
C446        C447   1.377       .  A
C446        H449   1.082       .  S
C447        C448   1.392       .  A
C447        C799   1.476       .  S
C448        H450   1.082       .  S
N451        N452   1.317       .  A
N451        C455   1.345       .  A
N451       Cu459   2.058       .  S
N452        C453   1.338   1_545  A
N452       Cu458   2.048       .  S
C453        C454   1.381       .  A
C453        H456   1.082       .  S
C454        C455   1.386   1_565  A
C454        C495   1.476       .  S
C455        H457   1.082       .  S
Cu458       N461   2.047       .  S
Cu459       N469   2.061       .  S
Cu460       N462   2.118       .  S
Cu460       N468   2.118       .  S
N461        N462   1.322       .  A
N461        C465   1.338       .  A
N462        C463   1.356       .  A
C463        C464   1.395       .  A
C463        H466   1.082       .  S
C464        C465   1.376       .  A
C464        C510   1.486       .  S
C465        H467   1.082   1_545  S
N468        N469   1.325       .  A
N468        C472   1.354       .  A
N469        C470   1.340       .  A
C470        C471   1.377       .  A
C470        H473   1.082       .  S
C471        C472   1.392       .  A
C471        C772   1.476       .  S
C472        H474   1.082       .  S
N475        C480   1.347       .  A
N475        C479   1.347       .  A
N475        H507   1.041       .  S
N476        C483   1.352       .  A
N476        C484   1.347       .  A
N477        C482   1.351       .  A
N477        C481   1.351       .  A
N477        H508   1.042       .  S
N478        C485   1.352       .  A
N478        C486   1.347       .  A
C479        C487   1.387       .  A
C479        C495   1.407       .  A
C480        C496   1.408       .  A
C480        C488   1.387       .  A
C481        C489   1.387       .  A
C481        C498   1.416       .  A
C482        C497   1.416       .  A
C482        C490   1.387       .  A
C483        C495   1.408       .  A
C483        C491   1.384       .  A
C484        C498   1.404       .  A
C484        C492   1.382       .  A
C485        C493   1.384       .  A
C485        C496   1.409       .  A
C486        C494   1.382       .  A
C486        C497   1.405       .  A
C487        C488   1.377       .  A
C487        H499   1.079   1_565  S
C488        H500   1.079   1_565  S
C489        C490   1.394       .  A
C489        H501   1.082       .  S
C490        H502   1.082       .  S
C491        C492   1.371       .  A
C491        H503   1.080       .  S
C492        H504   1.078       .  S
C493        C494   1.371       .  A
C493        H505   1.080       .  S
C494        H506   1.078       .  S
C497        C741   1.478       .  S
C498        C702   1.478       .  S
C509        C510   1.422   1_565  A
C509        C514   1.401   1_655  A
C510        C511   1.404   1_655  A
C511        C512   1.405       .  A
C511        H516   1.084       .  S
C512        C513   1.423   1_545  A
C512        C612   1.485       .  S
C513        C514   1.400       .  A
C513        C530   1.482       .  S
C514        H515   1.084       .  S
N517        N518   1.317   1_565  A
N517        C521   1.347   1_565  A
N517       Cu525   2.065       .  S
N518        C519   1.338       .  A
N518       Cu524   2.046   1_545  S
C519        C520   1.380       .  A
C519        H522   1.082       .  S
C520        C521   1.387       .  A
C520        C585   1.477       .  S
C521        H523   1.082       .  S
Cu524       N527   2.044       .  S
Cu525       N535   2.069       .  S
Cu526       N528   2.110       .  S
Cu526       N534   2.113       .  S
N527        N528   1.322       .  A
N527        C531   1.337       .  A
N528        C529   1.354       .  A
C529        C530   1.394       .  A
C529        H532   1.082       .  S
C530        C531   1.375       .  A
C531        H533   1.082   1_565  S
N534        N535   1.326       .  A
N534        C538   1.353       .  A
N535        C536   1.341       .  A
C536        C537   1.378       .  A
C536        H539   1.082       .  S
C537        C538   1.391       .  A
C537        C716   1.476       .  S
C538        H540   1.082       .  S
N541        N542   1.317   1_565  A
N541        C545   1.347   1_565  A
N541       Cu549   2.066       .  S
N542        C543   1.338       .  A
N542       Cu548   2.044   1_545  S
C543        C544   1.379       .  A
C543        H546   1.082       .  S
C544        C545   1.387       .  A
C544        C586   1.475       .  S
C545        H547   1.082       .  S
Cu548       N551   2.042       .  S
Cu549       N559   2.069       .  S
Cu550       N552   2.112       .  S
Cu550       N558   2.114       .  S
N551        N552   1.322       .  A
N551        C555   1.337       .  A
N552        C553   1.354       .  A
C553        C554   1.394       .  A
C553        H556   1.082       .  S
C554        C555   1.375       .  A
C554        C684   1.482       .  S
C555        H557   1.082   1_565  S
N558        N559   1.326       .  A
N558        C562   1.354       .  A
N559        C560   1.341       .  A
C560        C561   1.378       .  A
C560        H563   1.082       .  S
C561        C562   1.391       .  A
C561        C728   1.477       .  S
C562        H564   1.082       .  S
N565        C570   1.348       .  A
N565        C569   1.348       .  A
N565        H597   1.040       .  S
N566        C573   1.353       .  A
N566        C574   1.348       .  A
N567        C572   1.352       .  A
N567        C571   1.352       .  A
N567        H598   1.041       .  S
N568        C575   1.353       .  A
N568        C576   1.348       .  A
C569        C577   1.387       .  A
C569        C585   1.409       .  A
C570        C586   1.408       .  A
C570        C578   1.387       .  A
C571        C579   1.387       .  A
C571        C588   1.418       .  A
C572        C587   1.418       .  A
C572        C580   1.387       .  A
C573        C585   1.410       .  A
C573        C581   1.384       .  A
C574        C588   1.407       .  A
C574        C582   1.382       .  A
C575        C583   1.384       .  A
C575        C586   1.409       .  A
C576        C584   1.382       .  A
C576        C587   1.407       .  A
C577        C578   1.377       .  A
C577        H589   1.080       .  S
C578        H590   1.080       .  S
C579        C580   1.394       .  A
C579        H591   1.082       .  S
C580        H592   1.082       .  S
C581        C582   1.371       .  A
C581        H593   1.081       .  S
C582        H594   1.078       .  S
C583        C584   1.371       .  A
C583        H595   1.081       .  S
C584        H596   1.077       .  S
C587        C755   1.482       .  S
C588        C783   1.481       .  S
N599        N600   1.318       .  A
N599        C603   1.345       .  A
N599       Cu607   2.051   1_565  S
N600        C601   1.336       .  A
N600       Cu606   2.047   1_565  S
C601        C602   1.379       .  A
C601        H604   1.082       .  S
C602        C603   1.383       .  A
C602        C668   1.471       .  S
C603        H605   1.082       .  S
Cu606       N609   2.047       .  S
Cu607       N617   2.054       .  S
Cu608       N610   2.107       .  S
Cu608       N616   2.110       .  S
N609        N610   1.321       .  A
N609        C613   1.339       .  A
N610        C611   1.354       .  A
C611        C612   1.393       .  A
C611        H614   1.082       .  S
C612        C613   1.379       .  A
C613        H615   1.082   1_545  S
N616        N617   1.325       .  A
N616        C620   1.350       .  A
N617        C618   1.341       .  A
C618        C619   1.375       .  A
C618        H621   1.082       .  S
C619        C620   1.389       .  A
C619        C785   1.470       .  S
C620        H622   1.082       .  S
N623        N624   1.318       .  A
N623        C627   1.344       .  A
N623       Cu631   2.050   1_565  S
N624        C625   1.337       .  A
N624       Cu630   2.047   1_565  S
C625        C626   1.379       .  A
C625        H628   1.082       .  S
C626        C627   1.383       .  A
C626        C667   1.471       .  S
C627        H629   1.082       .  S
Cu630       N633   2.048       .  S
Cu631       N641   2.054       .  S
Cu632       N634   2.107       .  S
Cu632       N640   2.110       .  S
N633        N634   1.321       .  A
N633        C637   1.339       .  A
N634        C635   1.353       .  A
C635        C636   1.393       .  A
C635        H638   1.082       .  S
C636        C637   1.379       .  A
C636        C685   1.485       .  S
C637        H639   1.082   1_545  S
N640        N641   1.325       .  A
N640        C644   1.350       .  A
N641        C642   1.341       .  A
C642        C643   1.375       .  A
C642        H645   1.082       .  S
C643        C644   1.389       .  A
C643        C757   1.470       .  S
C644        H646   1.082       .  S
N647        C652   1.346       .  A
N647        C651   1.346       .  A
N647        H679   1.042       .  S
N648        C655   1.350       .  A
N648        C656   1.345       .  A
N649        C654   1.350       .  A
N649        C653   1.350       .  A
N649        H680   1.043       .  S
N650        C657   1.350       .  A
N650        C658   1.345       .  A
C651        C659   1.387       .  A
C651        C667   1.407       .  A
C652        C668   1.407       .  A
C652        C660   1.387       .  A
C653        C661   1.387       .  A
C653        C670   1.416       .  A
C654        C669   1.416       .  A
C654        C662   1.387       .  A
C655        C667   1.406       .  A
C655        C663   1.384       .  A
C656        C670   1.400       .  A
C656        C664   1.381       .  A
C657        C665   1.385       .  A
C657        C668   1.406       .  A
C658        C666   1.381       .  A
C658        C669   1.400       .  A
C659        C660   1.377       .  A
C659        H671   1.080       .  S
C660        H672   1.080       .  S
C661        C662   1.395       .  A
C661        H673   1.082       .  S
C662        H674   1.082       .  S
C663        C664   1.369       .  A
C663        H675   1.080       .  S
C664        H676   1.078       .  S
C665        C666   1.369       .  A
C665        H677   1.080       .  S
C666        H678   1.078       .  S
C669        C714   1.475       .  S
C670        C730   1.475       .  S
C681        C682   1.422   1_544  A
C681        C686   1.404   1_655  A
C682        C683   1.401   1_655  A
C683        C684   1.401       .  A
C683        H688   1.084       .  S
C684        C685   1.423   1_566  A
C685        C686   1.405       .  A
C686        H687   1.084       .  S
O689       Cu697   2.001       .  S
O689        C699   1.277       .  A
O690       Cu697   2.000       .  S
O690        C700   1.276       .  A
O691       Cu697   2.014       .  S
O691        C701   1.279       .  A
O692       Cu697   2.021       .  S
O692        C702   1.278       .  A
O693       Cu698   2.019       .  S
O693        C702   1.279       .  A
O694       Cu698   2.026       .  S
O694        C701   1.278       .  A
O695       Cu698   2.020       .  S
O695        C700   1.280       .  A
O696       Cu698   2.031       .  S
O696        C699   1.279       .  A
Cu697      Cu698   2.374       .  S
O703       Cu711   2.022       .  S
O703        C713   1.279       .  A
O704       Cu711   2.022       .  S
O704        C714   1.277       .  A
O705       Cu711   2.016       .  S
O705        C715   1.280       .  A
O706       Cu711   2.030       .  S
O706        C716   1.279       .  A
O707       Cu712   2.003       .  S
O707        C716   1.278       .  A
O708       Cu712   2.003       .  S
O708        C715   1.275       .  A
O709       Cu712   2.013       .  S
O709        C714   1.279       .  A
O710       Cu712   2.025       .  S
O710        C713   1.278       .  A
Cu711      Cu712   2.374       .  S
O717       Cu725   2.017       .  S
O717        C727   1.280       .  A
O718       Cu725   2.031   1_556  S
O718        C728   1.279       .  A
O719       Cu725   2.020   1_556  S
O719        C729   1.279       .  A
O720       Cu725   2.022       .  S
O720        C730   1.277       .  A
O721       Cu726   2.013   1_554  S
O721        C730   1.279       .  A
O722       Cu726   2.025       .  S
O722        C729   1.278       .  A
O723       Cu726   2.004       .  S
O723        C728   1.278       .  A
O724       Cu726   2.002   1_554  S
O724        C727   1.275       .  A
Cu725      Cu726   2.374   1_554  S
O731       Cu739   2.022       .  S
O731        C741   1.278       .  A
O732       Cu739   2.014   1_556  S
O732        C742   1.279       .  A
O733       Cu739   2.000   1_556  S
O733        C743   1.275       .  A
O734       Cu739   2.001       .  S
O734        C744   1.277       .  A
O735       Cu740   2.031   1_554  S
O735        C744   1.279       .  A
O736       Cu740   2.021       .  S
O736        C743   1.280       .  A
O737       Cu740   2.025       .  S
O737        C742   1.278       .  A
O738       Cu740   2.019   1_554  S
O738        C741   1.279       .  A
Cu739      Cu740   2.373   1_554  S
O745       Cu753   2.021   1_556  S
O745        C755   1.279       .  A
O746       Cu753   2.022       .  S
O746        C756   1.277       .  A
O747       Cu753   2.016       .  S
O747        C757   1.280       .  A
O748       Cu753   2.030   1_556  S
O748        C758   1.279       .  A
O749       Cu754   2.003       .  S
O749        C758   1.277       .  A
O750       Cu754   2.002   1_554  S
O750        C757   1.275       .  A
O751       Cu754   2.013   1_554  S
O751        C756   1.279       .  A
O752       Cu754   2.025       .  S
O752        C755   1.278       .  A
Cu753      Cu754   2.374   1_554  S
O759       Cu767   2.021       .  S
O759        C769   1.278       .  A
O760       Cu767   2.014       .  S
O760        C770   1.279       .  A
O761       Cu767   2.000       .  S
O761        C771   1.275       .  A
O762       Cu767   2.001       .  S
O762        C772   1.277       .  A
O763       Cu768   2.031       .  S
O763        C772   1.279       .  A
O764       Cu768   2.020       .  S
O764        C771   1.280       .  A
O765       Cu768   2.026       .  S
O765        C770   1.278       .  A
O766       Cu768   2.020       .  S
O766        C769   1.279       .  A
Cu767      Cu768   2.373       .  S
O773       Cu781   2.025       .  S
O773        C783   1.278       .  A
O774       Cu781   2.013       .  S
O774        C784   1.279       .  A
O775       Cu781   2.003       .  S
O775        C785   1.275       .  A
O776       Cu781   2.004       .  S
O776        C786   1.278       .  A
O777       Cu782   2.031       .  S
O777        C786   1.279       .  A
O778       Cu782   2.016       .  S
O778        C785   1.280       .  A
O779       Cu782   2.022       .  S
O779        C784   1.277       .  A
O780       Cu782   2.021       .  S
O780        C783   1.279       .  A
Cu781      Cu782   2.374       .  S
O787       Cu795   2.025       .  S
O787        C797   1.278       .  A
O788       Cu795   2.019   1_554  S
O788        C798   1.279       .  A
O789       Cu795   2.031   1_554  S
O789        C799   1.279       .  A
O790       Cu795   2.021       .  S
O790        C800   1.280       .  A
O791       Cu796   2.001   1_556  S
O791        C800   1.276       .  A
O792       Cu796   2.000       .  S
O792        C799   1.277       .  A
O793       Cu796   2.021       .  S
O793        C798   1.278       .  A
O794       Cu796   2.014   1_556  S
O794        C797   1.279       .  A
Cu795      Cu796   2.374   1_556  S
