geometry optimzed in LAMMPS
_audit_creation_date              2020-11-30 
_audit_creation_method            'lammps2cif' 
_symmetry_space_group_name_H-M    'P1' 
_symmetry_Int_Tables_number       1 
_symmetry_cell_setting            triclinic 
loop_ 
_symmetry_equiv_pos_as_xyz 
  x,y,z 
_cell_length_a                    55.16416634 
_cell_length_b                    55.205862202196315 
_cell_length_c                    55.13029521572827 
_cell_angle_alpha                 90.06269696233882 
_cell_angle_beta                  90.1278694358376 
_cell_angle_gamma                 89.97253593131543 
loop_ 
_atom_site_label 
_atom_site_type_symbol 
_atom_site_fract_x 
_atom_site_fract_y 
_atom_site_fract_z 
_atom_site_charge 
O1          O  0.84562716  0.87968124  0.59990186    -0.82200
C2          C  0.87586848  0.82309146  0.68095301     0.97200
O3          O  0.87817252  0.81771033  0.65885224    -0.71300
O4          O  0.84024457  0.81795040  0.63164318    -0.74900
Al5        Al  0.87008930  0.83402899  0.62930750     1.49000
C6          C  0.81966384  0.82486343  0.62491282     0.92400
O7          O  0.81585259  0.87359467  0.66141987    -0.81100
O8          O  0.87872737  0.90446934  0.65483894    -0.74700
Al9        Al  0.83242533  0.87585621  0.63147536     1.90100
O10         O  0.84561573  0.88365046  0.68590092    -0.73800
O11         O  0.90623513  0.86602034  0.65900310    -0.73600
O12         O  0.87201852  0.84461108  0.68739627    -0.79300
O13         O  0.90201887  0.84576481  0.62508541    -0.77500
O14         O  0.85906305  0.86118096  0.64328523    -1.13600
O15         O  0.86381346  0.84441908  0.59673662    -0.72800
C16         C  0.85561100  0.86353471  0.58715890     0.97900
C17         C  0.82340974  0.87984190  0.68207983     0.94300
Al18       Al  0.87430376  0.87358709  0.66931995     1.55600
O19         O  0.81543321  0.84706027  0.62182008    -0.77400
C20         C  0.91518918  0.85627258  0.64044955     0.98500
C21         C  0.86247993  0.91746452  0.64542112     0.93400
O22         O  0.84284745  0.90822649  0.63819975    -0.82700
O23         O  0.67021026  0.87768543  0.89089623    -0.82200
C24         C  0.64047187  0.82247115  0.80889917     0.97200
O25         O  0.63606799  0.81769962  0.83088023    -0.71300
O26         O  0.67322059  0.81620561  0.86015449    -0.74900
Al27       Al  0.64392302  0.83404765  0.86086866     1.49000
C28         C  0.69463176  0.82265707  0.86468627     0.92400
O29         O  0.70093666  0.87319759  0.83025324    -0.81100
O30         O  0.63829448  0.90387056  0.83470669    -0.74700
Al31       Al  0.68349972  0.87441815  0.85951482     1.90100
O32         O  0.67230185  0.88283135  0.80460817    -0.73800
O33         O  0.61037899  0.86548816  0.82854622    -0.73600
O34         O  0.64612618  0.84361865  0.80251774    -0.79300
O35         O  0.61259588  0.84834593  0.86385116    -0.77500
O36         O  0.65691519  0.86038380  0.84690131    -1.13600
O37         O  0.64921776  0.84420075  0.89356176    -0.72800
C38         C  0.65843167  0.86269735  0.90329283     0.97900
C39         C  0.69432728  0.87930480  0.80935784     0.94300
Al40       Al  0.64306439  0.87282981  0.82015228     1.55600
O41         O  0.69986257  0.84474064  0.86741000    -0.77400
C42         C  0.60010583  0.85828402  0.84754374     0.98500
C43         C  0.65367089  0.91661939  0.84593999     0.93400
O44         O  0.67295355  0.90715970  0.85397774    -0.82700
O45         O  0.84756406  0.63788158  0.89073397    -0.82200
C46         C  0.88107506  0.69345146  0.81005204     0.97200
O47         O  0.88354924  0.69814141  0.83226046    -0.71300
O48         O  0.84493537  0.69897576  0.85926639    -0.74900
Al49       Al  0.87458857  0.68168763  0.86135226     1.49000
C50         C  0.82352778  0.69236658  0.86343529     0.92400
O51         O  0.81910211  0.64187745  0.82820309    -0.81100
O52         O  0.88033022  0.61078515  0.83389564    -0.74700
Al53       Al  0.83543476  0.64085910  0.85850716     1.90100
O54         O  0.84870213  0.63424958  0.80309537    -0.73800
O55         O  0.90954842  0.64811869  0.83157950    -0.73600
O56         O  0.87647724  0.67216967  0.80325967    -0.79300
O57         O  0.90623655  0.66855735  0.86548462    -0.77500
O58         O  0.86253923  0.65493147  0.84688960    -1.13600
O59         O  0.86819893  0.67161636  0.89367595    -0.72800
C60         C  0.85882536  0.65324834  0.90335376     0.97900
C61         C  0.82646388  0.63708425  0.80714997     0.94300
Al62       Al  0.87741399  0.64248792  0.82055427     1.55600
O63         O  0.81861217  0.67024039  0.86593498    -0.77400
C64         C  0.91891622  0.65720032  0.85029759     0.98500
C65         C  0.86466578  0.59847274  0.84502170     0.93400
O66         O  0.84592821  0.60832206  0.85354412    -0.82700
O67         O  0.67049614  0.63576341  0.59721862    -0.82200
C68         C  0.64215856  0.69621844  0.67612527     0.97200
O69         O  0.63858877  0.70021290  0.65384075    -0.71300
O70         O  0.67560024  0.69880325  0.62478525    -0.74900
Al71       Al  0.64585546  0.68211179  0.62481322     1.49000
C72         C  0.69663020  0.69149391  0.62011708     0.92400
O73         O  0.70207892  0.64332412  0.65724177    -0.81100
O74         O  0.63923580  0.61354277  0.65545002    -0.74700
Al75       Al  0.68426423  0.64066204  0.62818742     1.90100
O76         O  0.67376924  0.63615837  0.68385494    -0.73800
O77         O  0.61160117  0.65193783  0.65826484    -0.73600
O78         O  0.64738081  0.67531192  0.68350053    -0.79300
O79         O  0.61393837  0.66948188  0.62274781    -0.77500
O80         O  0.65806875  0.65598402  0.64013865    -1.13600
O81         O  0.65076185  0.66981579  0.59246578    -0.72800
C82         C  0.65930621  0.65039375  0.58382708     0.97900
C83         C  0.69584475  0.63875473  0.67863096     0.94300
Al84       Al  0.64426055  0.64523590  0.66764242     1.55600
O85         O  0.70118150  0.66921485  0.61822888    -0.77400
C86         C  0.60161779  0.65982878  0.63929168     0.98500
C87         C  0.65410657  0.60015368  0.64451423     0.93400
O88         O  0.67331192  0.60870897  0.63562014    -0.82700
O89         O  0.86184169  0.17475707  0.60293577    -0.82200
C90         C  0.81794840  0.13555009  0.68548074     0.97200
O91         O  0.81201138  0.14563348  0.66594779    -0.71300
O92         O  0.81429132  0.17533604  0.62936531    -0.74900
Al93       Al  0.82835163  0.14398198  0.63599578     1.49000
C94         C  0.82071958  0.19661811  0.63494328     0.92400
O95         O  0.88057496  0.19427156  0.66684472    -0.81100
O96         O  0.90220555  0.14638762  0.66486700    -0.74700
Al97       Al  0.86996084  0.18157259  0.63627219     1.90100
O98         O  0.86716323  0.16784072  0.69328398    -0.73800
O99         O  0.87241822  0.11050710  0.65710446    -0.73600
O100        O  0.83967863  0.12934227  0.68877291    -0.79300
O101        O  0.83656520  0.11029675  0.63996439    -0.77500
O102        O  0.85595012  0.15507148  0.64849544    -1.13600
O103        O  0.84102804  0.14097556  0.60453196    -0.72800
C104        C  0.85223026  0.15671310  0.59254999     0.97900
C105        C  0.87426919  0.18889205  0.68817806     0.94300
Al106      Al  0.86933567  0.13992265  0.67380942     1.55600
O107        O  0.84224582  0.20093749  0.64093275    -0.77400
C108        C  0.85562764  0.09925927  0.64647090     0.98500
C109        C  0.91228710  0.15446066  0.64601447     0.93400
O110        O  0.89991371  0.16579854  0.63050559    -0.82700
O111        O  0.87669849  0.34954700  0.89462365    -0.82200
C112        C  0.82082721  0.37657272  0.81121255     0.97200
O113        O  0.81602641  0.38050091  0.83319238    -0.71300
O114        O  0.81497162  0.34306622  0.86233564    -0.74900
Al115      Al  0.83228290  0.37295703  0.86313007     1.49000
C116        C  0.82179708  0.32221346  0.86863110     0.92400
O117        O  0.87194949  0.31539865  0.83587558    -0.81100
O118        O  0.90380714  0.37594888  0.83496632    -0.74700
Al119      Al  0.87338517  0.33425454  0.86408750     1.90100
O120        O  0.87890939  0.34213139  0.80751239    -0.73800
O121        O  0.86698991  0.40561852  0.83172850    -0.73600
O122        O  0.84208848  0.37108227  0.80529521    -0.79300
O123        O  0.84576289  0.40459509  0.86538500    -0.77500
O124        O  0.85926313  0.36004110  0.84994391    -1.13600
O125        O  0.84188391  0.36843840  0.89633760    -0.72800
C126        C  0.86078586  0.36060222  0.90659951     0.97900
C127        C  0.87586995  0.32047731  0.81405549     0.94300
Al128      Al  0.87178305  0.37259253  0.82251645     1.55600
O129        O  0.84385986  0.31806590  0.87301373    -0.77400
C130        C  0.85788535  0.41616836  0.84986654     0.98500
C131        C  0.91607016  0.36149989  0.84764697     0.93400
O132        O  0.90605897  0.34392111  0.85813414    -0.82700
O133        O  0.63609932  0.17013466  0.89612502    -0.82200
C134        C  0.68886656  0.13812053  0.81364925     0.97200
O135        O  0.69411877  0.13464060  0.83556264    -0.71300
O136        O  0.69681529  0.17197153  0.86385154    -0.74900
Al137      Al  0.67862343  0.14290280  0.86518224     1.49000
C138        C  0.69091753  0.19345685  0.86864481     0.92400
O139        O  0.63933111  0.20070093  0.83487094    -0.81100
O140        O  0.60753810  0.13969140  0.83885507    -0.74700
Al141      Al  0.63871129  0.18321866  0.86441962     1.90100
O142        O  0.63065131  0.17227852  0.80867903    -0.73800
O143        O  0.64401436  0.10965675  0.83455533    -0.73600
O144        O  0.66772507  0.14357017  0.80722021    -0.79300
O145        O  0.66471495  0.11149304  0.86841979    -0.77500
O146        O  0.65195137  0.15619799  0.85158297    -1.13600
O147        O  0.66934122  0.14847250  0.89783605    -0.72800
C148        C  0.65138707  0.15809162  0.90802498     0.97900
C149        C  0.63404596  0.19430460  0.81362537     0.94300
Al150      Al  0.63868643  0.14255429  0.82494781     1.55600
O151        O  0.66893342  0.19900975  0.87168070    -0.77400
C152        C  0.65320134  0.09940274  0.85280698     0.98500
C153        C  0.59553354  0.15513242  0.85056579     0.93400
O154        O  0.60568334  0.17350314  0.85966390    -0.82700
O155        O  0.63615518  0.34804988  0.60213961    -0.82200
C156        C  0.68704879  0.38137146  0.68471609     0.97200
O157        O  0.69177525  0.38738316  0.66313357    -0.71300
O158        O  0.69730735  0.34931779  0.63634344    -0.74900
Al159      Al  0.67772624  0.37674578  0.63293242     1.49000
C160        C  0.69307798  0.32785016  0.63034187     0.92400
O161        O  0.64330659  0.31847975  0.66432098    -0.81100
O162        O  0.60656098  0.37862627  0.65614412    -0.74700
Al163      Al  0.64034071  0.33500249  0.63405550     1.90100
O164        O  0.62829910  0.34657694  0.68779124    -0.73800
O165        O  0.64321693  0.40933309  0.66251338    -0.73600
O166        O  0.66609983  0.37460282  0.69058502    -0.79300
O167        O  0.66171554  0.40636148  0.62759721    -0.77500
O168        O  0.65167924  0.36270872  0.64617129    -1.13600
O169        O  0.66982651  0.36877675  0.60001824    -0.72800
C170        C  0.65160932  0.35945272  0.58973677     0.97900
C171        C  0.63487786  0.32493169  0.68458200     0.94300
Al172      Al  0.63730185  0.37624799  0.67192941     1.55600
O173        O  0.67149278  0.32136068  0.62630291    -0.77400
C174        C  0.65114776  0.41894612  0.64331813     0.98500
C175        C  0.59544649  0.36126560  0.64613304     0.93400
O176        O  0.60667334  0.34245823  0.63938538    -0.82700
O177        O  0.16269230  0.89972335  0.62583342    -0.82200
C178        C  0.13809755  0.81684381  0.68265650     0.97200
O179        O  0.13208291  0.83861621  0.68661799    -0.71300
O180        O  0.16947415  0.86776160  0.68824489    -0.74900
Al181      Al  0.14021308  0.86892271  0.67073711     1.49000
C182        C  0.19036271  0.87447774  0.68194328     0.92400
O183        O  0.19879582  0.84181300  0.63304603    -0.81100
O184        O  0.13572008  0.84091791  0.60176712    -0.74700
Al185      Al  0.17893436  0.86963123  0.63027287     1.90100
O186        O  0.17243158  0.81398262  0.62297351    -0.73800
O187        O  0.10811011  0.83523220  0.63986439    -0.73600
O188        O  0.14603124  0.81133772  0.66209856    -0.79300
O189        O  0.10926443  0.87145696  0.65606958    -0.77500
O190        O  0.15354057  0.85554880  0.64443332    -1.13600
O191        O  0.14533533  0.90223889  0.66130320    -0.72800
C192        C  0.15219648  0.91215755  0.64183162     0.97900
C193        C  0.19404574  0.82031211  0.62730225     0.94300
Al194      Al  0.14159974  0.82785173  0.63268418     1.55600
O195        O  0.19414697  0.87972940  0.66004068    -0.77400
C196        C  0.09741039  0.85435713  0.64666953     0.98500
C197        C  0.15031231  0.85240522  0.58865668     0.93400
O198        O  0.16915079  0.86199190  0.59759520    -0.82700
O199        O  0.35118281  0.89997989  0.86235202    -0.82200
C200        C  0.38111238  0.81597684  0.81048095     0.97200
O201        O  0.38680047  0.83770287  0.80655607    -0.71300
O202        O  0.34678678  0.86301755  0.80117772    -0.74900
Al203      Al  0.37516500  0.86756734  0.81992395     1.49000
C204        C  0.32601264  0.87097284  0.80634226     0.92400
O205        O  0.31596680  0.84143743  0.85709347    -0.81100
O206        O  0.37605962  0.84209865  0.89167341    -0.74700
Al207      Al  0.33511094  0.86961689  0.85877057     1.90100
O208        O  0.34289381  0.81420599  0.86698043    -0.73800
O209        O  0.40692319  0.83765786  0.85463317    -0.73600
O210        O  0.37169894  0.81064347  0.83043405    -0.79300
O211        O  0.40502472  0.87294781  0.83606528    -0.77500
O212        O  0.36128888  0.85522778  0.84645781    -1.13600
O213        O  0.36710311  0.90077650  0.82622642    -0.72800
C214        C  0.36067329  0.91170588  0.84524537     0.97900
C215        C  0.32118628  0.82001793  0.86304513     0.94300
Al216      Al  0.37346101  0.82852721  0.85984881     1.55600
O217        O  0.32121763  0.87804788  0.82770156    -0.77400
C218        C  0.41711941  0.85662981  0.84661286     0.98500
C219        C  0.35969944  0.85315191  0.90325260     0.93400
O220        O  0.34267829  0.86351276  0.89202219    -0.82700
O221        O  0.17150254  0.60465526  0.86608582    -0.82200
C222        C  0.13972248  0.68794217  0.81403592     0.97200
O223        O  0.13529611  0.66607868  0.80882389    -0.71300
O224        O  0.17268972  0.63772442  0.80422275    -0.74900
Al225      Al  0.14437638  0.63574218  0.82349709     1.49000
C226        C  0.19403214  0.63148739  0.80927314     0.92400
O227        O  0.20323753  0.66505787  0.85936051    -0.81100
O228        O  0.14279196  0.65975066  0.89470233    -0.74700
Al229      Al  0.18569306  0.63579191  0.86190321     1.90100
O230        O  0.17528234  0.68997501  0.87185013    -0.73800
O231        O  0.11228161  0.66642517  0.85818081    -0.73600
O232        O  0.14640121  0.69357748  0.83512816    -0.79300
O233        O  0.11367901  0.63196206  0.83900109    -0.77500
O234        O  0.15845343  0.64879520  0.84972009    -1.13600
O235        O  0.15090055  0.60268934  0.83220726    -0.72800
C236        C  0.15982353  0.59243984  0.85067656     0.97900
C237        C  0.19700127  0.68589100  0.86622882     0.94300
Al238      Al  0.14535092  0.67496044  0.86378812     1.55600
O239        O  0.19982169  0.62725169  0.83106209    -0.77400
C240        C  0.10163339  0.64801309  0.84989791     0.98500
C241        C  0.15961526  0.64947629  0.90635311     0.93400
O242        O  0.17819356  0.64176777  0.89545308    -0.82700
O243        O  0.34927724  0.60792113  0.62498612    -0.82200
C244        C  0.38114558  0.68882447  0.67907446     0.97200
O245        O  0.38686266  0.66704619  0.68344897    -0.71300
O246        O  0.34929594  0.63852833  0.68820684    -0.74900
Al247      Al  0.37727929  0.63704951  0.66828089     1.49000
C248        C  0.32791772  0.63242473  0.68317447     0.92400
O249        O  0.31846111  0.66871626  0.63564593    -0.81100
O250        O  0.37892642  0.66270178  0.59857500    -0.74700
Al251      Al  0.33546160  0.63903684  0.63083407     1.90100
O252        O  0.34542352  0.69266846  0.62034628    -0.73800
O253        O  0.40903980  0.66911743  0.63515300    -0.73600
O254        O  0.37365044  0.69516756  0.65846078    -0.79300
O255        O  0.40742259  0.63343265  0.65212997    -0.77500
O256        O  0.36290133  0.65105140  0.64281402    -1.13600
O257        O  0.37042180  0.60437499  0.65843275    -0.72800
C258        C  0.36124366  0.59499949  0.63959492     0.97900
C259        C  0.32399056  0.68927900  0.62751456     0.94300
Al260      Al  0.37573038  0.67753993  0.62933268     1.55600
O261        O  0.32191415  0.62928456  0.66128563    -0.77400
C262        C  0.41943159  0.64996260  0.64209794     0.98500
C263        C  0.36179501  0.65312123  0.58687716     0.93400
O264        O  0.34269172  0.64622923  0.59745225    -0.82700
O265        O  0.10679259  0.16549609  0.62524840    -0.82200
C266        C  0.18794870  0.13229953  0.67968683     0.97200
O267        O  0.16592280  0.12822599  0.68451944    -0.71300
O268        O  0.13864320  0.16677996  0.68759987    -0.74900
Al269      Al  0.13600172  0.13809218  0.66907453     1.49000
C270        C  0.13283168  0.18806268  0.68201314     0.92400
O271        O  0.16757611  0.19541316  0.63291803    -0.81100
O272        O  0.16115616  0.13406629  0.59856053    -0.74700
Al273      Al  0.13798725  0.17862140  0.62992340     1.90100
O274        O  0.19225399  0.16688626  0.62066296    -0.73800
O275        O  0.16619760  0.10434611  0.63566399    -0.73600
O276        O  0.19391858  0.13902327  0.65872945    -0.79300
O277        O  0.13146767  0.10729694  0.65455926    -0.77500
O278        O  0.14989589  0.15125551  0.64282380    -1.13600
O279        O  0.10325268  0.14519353  0.65926210    -0.72800
C280        C  0.09398044  0.15428851  0.64035074     0.97900
C281        C  0.18816506  0.18879254  0.62584654     0.94300
Al282      Al  0.17597443  0.13726639  0.62957951     1.55600
O283        O  0.12903380  0.19366608  0.66014421    -0.77400
C284        C  0.14720678  0.09469254  0.64396269     0.98500
C285        C  0.15149423  0.15087424  0.58645307     0.93400
O286        O  0.14437539  0.17001230  0.59680598    -0.82700
O287        O  0.39981355  0.34176404  0.62524846    -0.82200
C288        C  0.32012274  0.37371896  0.68295424     0.97200
O289        O  0.34243049  0.37590482  0.68713342    -0.71300
O290        O  0.37108978  0.33911431  0.68608471    -0.74900
Al291      Al  0.37107377  0.36867755  0.66939229     1.49000
C292        C  0.37385343  0.31764457  0.67918891     0.92400
O293        O  0.33742957  0.31302315  0.62829068    -0.81100
O294        O  0.34076320  0.37434523  0.59919503    -0.74700
Al295      Al  0.36750235  0.32978677  0.62799987     1.90100
O296        O  0.31126883  0.34228162  0.62374755    -0.73800
O297        O  0.33961804  0.40357155  0.63666265    -0.73600
O298        O  0.31253430  0.37008493  0.66172314    -0.79300
O299        O  0.37351672  0.40050338  0.65711216    -0.77500
O300        O  0.35583088  0.35657761  0.64287385    -1.13600
O301        O  0.40312333  0.36380816  0.65796586    -0.72800
C302        C  0.41261170  0.35388381  0.63978880     0.97900
C303        C  0.31598836  0.32002666  0.62494948     0.94300
Al304      Al  0.32873970  0.37120138  0.63142337     1.55600
O305        O  0.37465149  0.31240531  0.65699602    -0.77400
C306        C  0.35824697  0.41306144  0.64582305     0.98500
C307        C  0.35294815  0.35977239  0.58650340     0.93400
O308        O  0.36258250  0.34133594  0.59588954    -0.82700
O309        O  0.40022153  0.16362667  0.86397627    -0.82200
C310        C  0.32172754  0.13152920  0.80530132     0.97200
O311        O  0.34396232  0.13002657  0.80033039    -0.71300
O312        O  0.36993660  0.16875506  0.80147075    -0.74900
Al313      Al  0.37285876  0.13883632  0.81747870     1.49000
C314        C  0.37512367  0.18961508  0.80885150     0.92400
O315        O  0.33827622  0.19192125  0.85706072    -0.81100
O316        O  0.34611284  0.12944396  0.88792299    -0.74700
Al317      Al  0.36861903  0.17609286  0.85961871     1.90100
O318        O  0.31422154  0.16154476  0.86574527    -0.73800
O319        O  0.34422894  0.10169194  0.84947595    -0.73600
O320        O  0.31474183  0.13472991  0.82678535    -0.79300
O321        O  0.37786311  0.10712078  0.82917407    -0.77500
O322        O  0.35791700  0.14928808  0.84449586    -1.13600
O323        O  0.40501679  0.14568595  0.82878017    -0.72800
C324        C  0.41364022  0.15363601  0.84847755     0.97900
C325        C  0.31763854  0.18391833  0.86257525     0.94300
Al326      Al  0.33220870  0.13325830  0.85638854     1.55600
O327        O  0.37801782  0.19352571  0.83115269    -0.77400
C328        C  0.36334526  0.09348931  0.84012001     0.98500
C329        C  0.35562440  0.14558033  0.90102717     0.93400
O330        O  0.36209394  0.16543297  0.89187975    -0.82700
O331        O  0.11057920  0.34302475  0.86870600    -0.82200
C332        C  0.19303861  0.36985256  0.81324671     0.97200
O333        O  0.17110105  0.37249037  0.80745395    -0.71300
O334        O  0.14223516  0.33531454  0.80674527    -0.74900
Al335      Al  0.14118226  0.36547231  0.82325992     1.49000
C336        C  0.13529037  0.31484364  0.81385998     0.92400
O337        O  0.17009240  0.30948601  0.86283424    -0.81100
O338        O  0.16707437  0.37162932  0.89473302    -0.74700
Al339      Al  0.14116569  0.32768673  0.86492437     1.90100
O340        O  0.19652544  0.33741595  0.87271238    -0.73800
O341        O  0.17174114  0.39998643  0.85707386    -0.73600
O342        O  0.19906938  0.36531596  0.83474363    -0.79300
O343        O  0.13851480  0.39759193  0.83530150    -0.77500
O344        O  0.15448020  0.35364713  0.85060518    -1.13600
O345        O  0.10814184  0.36084016  0.83329767    -0.72800
C346        C  0.09826955  0.35383781  0.85274432     0.97900
C347        C  0.19131980  0.31547667  0.86878249     0.94300
Al348      Al  0.18108954  0.36737109  0.86362936     1.55600
O349        O  0.13114324  0.31123649  0.83599039    -0.77400
C350        C  0.15383175  0.40991247  0.84692496     0.98500
C351        C  0.15624189  0.35590626  0.90710190     0.93400
O352        O  0.14790858  0.33707863  0.89737422    -0.82700
O353        O  0.89967058  0.87242426  0.33524967    -0.82200
C354        C  0.81595514  0.82018849  0.36477488     0.97200
O355        O  0.83771407  0.81425752  0.36851374    -0.71300
O356        O  0.86594285  0.81216049  0.33077391    -0.74900
Al357      Al  0.86799661  0.82927451  0.36058731     1.49000
C358        C  0.87187796  0.81835340  0.30965387     0.92400
O359        O  0.83849677  0.86955750  0.30421191    -0.81100
O360        O  0.84428084  0.90071819  0.36650351    -0.74700
Al361      Al  0.86818566  0.87017319  0.32160972     1.90100
O362        O  0.81350503  0.88019476  0.33302832    -0.73800
O363        O  0.83848788  0.86346500  0.39487535    -0.73600
O364        O  0.81051047  0.84174542  0.35987579    -0.79300
O365        O  0.87189874  0.84225783  0.39237985    -0.77500
O366        O  0.85522509  0.85660512  0.34823981    -1.13600
O367        O  0.90095767  0.83807273  0.35520320    -0.72800
C368        C  0.91136420  0.85648228  0.34666369     0.97900
C369        C  0.81779854  0.87638310  0.31093728     0.94300
Al370      Al  0.82918224  0.87022956  0.36231540     1.55600
O371        O  0.87588497  0.84037350  0.30508239    -0.77400
C372        C  0.85681909  0.85410576  0.40473944     0.98500
C373        C  0.85552383  0.91297109  0.35094056     0.93400
O374        O  0.86345419  0.90315235  0.33183792    -0.82700
O375        O  0.89786217  0.63044238  0.15566647    -0.82200
C376        C  0.81884984  0.68799113  0.12323037     0.97200
O377        O  0.84110878  0.69262658  0.12085059    -0.71300
O378        O  0.86641065  0.69278192  0.16070220    -0.74900
Al379      Al  0.87007665  0.67617338  0.13093603     1.49000
C380        C  0.87097779  0.68571439  0.18186063     0.92400
O381        O  0.83572665  0.63683039  0.18421852    -0.81100
O382        O  0.84366534  0.60597790  0.12147749    -0.74700
Al383      Al  0.86610989  0.63457861  0.16843318     1.90100
O384        O  0.81200059  0.62709347  0.15388619    -0.73800
O385        O  0.84105561  0.64472750  0.09390268    -0.73600
O386        O  0.81190699  0.66674383  0.12779587    -0.79300
O387        O  0.87561835  0.66341696  0.09948055    -0.77500
O388        O  0.85525297  0.64931297  0.14162137    -1.13600
O389        O  0.90246156  0.66584607  0.13874659    -0.72800
C390        C  0.91135395  0.64599092  0.14584274     0.97900
C391        C  0.81523157  0.63054876  0.17628007     0.94300
Al392      Al  0.82953561  0.63725615  0.12565589     1.55600
O393        O  0.87467617  0.66356577  0.18609065    -0.77400
C394        C  0.86055463  0.65325732  0.08565438     0.98500
C395        C  0.85309894  0.59294649  0.13772220     0.93400
O396        O  0.85990839  0.60218654  0.15753769    -0.82700
O397        O  0.60758966  0.86614908  0.16035240    -0.82200
C398        C  0.69059463  0.81867051  0.12490431     0.97200
O399        O  0.66898360  0.81284409  0.12902732    -0.71300
O400        O  0.63380191  0.81590018  0.15943188    -0.74900
Al401      Al  0.63988045  0.83094236  0.12912520     1.49000
C402        C  0.63747199  0.82124688  0.18132561     0.92400
O403        O  0.67079574  0.88008404  0.18355215    -0.81100
O404        O  0.67012690  0.90350574  0.13112054    -0.74700
Al405      Al  0.64079298  0.87168441  0.16857134     1.90100
O406        O  0.69850211  0.87175056  0.15680411    -0.73800
O407        O  0.66731154  0.87160927  0.09652208    -0.73600
O408        O  0.69627067  0.84059235  0.12237637    -0.79300
O409        O  0.64359293  0.83995184  0.09606929    -0.77500
O410        O  0.65364238  0.85781917  0.14179694    -1.13600
O411        O  0.60809061  0.84438991  0.12725014    -0.72800
C412        C  0.59656279  0.85628215  0.14294117     0.97900
C413        C  0.69272568  0.87735707  0.17801386     0.94300
Al414      Al  0.68038314  0.87067139  0.12798855     1.55600
O415        O  0.64234195  0.84275963  0.18718940    -0.77400
C416        C  0.65419465  0.85689673  0.08515900     0.98500
C417        C  0.65242301  0.91429010  0.14071929     0.93400
O418        O  0.63765008  0.90283144  0.15388451    -0.82700
O419        O  0.60495422  0.63746954  0.32963468    -0.82200
C420        C  0.68685776  0.69109690  0.36245248     0.97200
O421        O  0.66463121  0.69582339  0.36178714    -0.71300
O422        O  0.63159105  0.69385169  0.32907640    -0.74900
Al423      Al  0.63604882  0.67723378  0.35889846     1.49000
C424        C  0.63196008  0.68785565  0.30706292     0.92400
O425        O  0.66680884  0.63295330  0.30147929    -0.81100
O426        O  0.66848091  0.60625785  0.35716620    -0.74700
Al427      Al  0.63740918  0.63685379  0.31852066     1.90100
O428        O  0.69539345  0.63647170  0.32859063    -0.73800
O429        O  0.66767233  0.63935044  0.39061849    -0.73600
O430        O  0.69417141  0.66956132  0.36151053    -0.79300
O431        O  0.63826311  0.66587584  0.39140251    -0.77500
O432        O  0.65064742  0.65100910  0.34527696    -1.13600
O433        O  0.60418089  0.66426234  0.35864179    -0.72800
C434        C  0.59350634  0.64896592  0.34557666     0.97900
C435        C  0.68885929  0.63345827  0.30702378     0.94300
Al436      Al  0.67854280  0.63908543  0.35823294     1.55600
O437        O  0.63383692  0.66599539  0.30111222    -0.77400
C438        C  0.65188702  0.65101222  0.40208366     0.98500
C439        C  0.65281943  0.59462226  0.34530913     0.93400
O440        O  0.63902592  0.60519755  0.33062960    -0.82700
O441        O  0.63250844  0.10883130  0.16076924    -0.82200
C442        C  0.69022365  0.18827436  0.12793447     0.97200
O443        O  0.69382384  0.16596850  0.12457596    -0.71300
O444        O  0.69486546  0.13870239  0.16341161    -0.74900
Al445      Al  0.67692488  0.13717505  0.13403047     1.49000
C446        C  0.68827761  0.13452553  0.18484692     0.92400
O447        O  0.63870977  0.17024092  0.19035638    -0.81100
O448        O  0.60745054  0.16608891  0.12827623    -0.74700
Al449      Al  0.63661540  0.14056515  0.17344832     1.90100
O450        O  0.63032495  0.19581694  0.16139279    -0.73800
O451        O  0.64572705  0.16931278  0.09986226    -0.73600
O452        O  0.66962242  0.19577796  0.13446014    -0.79300
O453        O  0.66262195  0.13363744  0.10282452    -0.77500
O454        O  0.65092023  0.15224429  0.14662078    -1.13600
O455        O  0.66622491  0.10497967  0.14038937    -0.72800
C456        C  0.64732038  0.09587243  0.14928262     0.97900
C457        C  0.63330690  0.19126964  0.18355154     0.94300
Al458      Al  0.63933329  0.17918310  0.13234273     1.55600
O459        O  0.66613024  0.13218213  0.19000173    -0.77400
C460        C  0.65301597  0.15000360  0.09013403     0.98500
C461        C  0.59450260  0.15501904  0.14353582     0.93400
O462        O  0.60391674  0.14668476  0.16273110    -0.82700
O463        O  0.63710366  0.39984143  0.33482867    -0.82200
C464        C  0.69285907  0.32032759  0.36988187     0.97200
O465        O  0.69777581  0.34250287  0.37199665    -0.71300
O466        O  0.69878075  0.36809102  0.33235912    -0.74900
Al467      Al  0.68158775  0.37142558  0.36185801     1.49000
C468        C  0.69192625  0.37224153  0.31099528     0.92400
O469        O  0.64214477  0.33802298  0.30691542    -0.81100
O470        O  0.61092877  0.34468966  0.36832982    -0.74700
Al471      Al  0.64062568  0.36801311  0.32285341     1.90100
O472        O  0.63369311  0.31343288  0.33684023    -0.73800
O473        O  0.64835698  0.34251638  0.39744690    -0.73600
O474        O  0.67173838  0.31358019  0.36458764    -0.79300
O475        O  0.66828817  0.37658803  0.39335895    -0.77500
O476        O  0.65479932  0.35687475  0.35011647    -1.13600
O477        O  0.67167995  0.40358556  0.35411605    -0.72800
C478        C  0.65287607  0.41280871  0.34496509     0.97900
C479        C  0.63660004  0.31735548  0.31455104     0.94300
Al480      Al  0.64234397  0.33102240  0.36542881     1.55600
O481        O  0.66989151  0.37566009  0.30615393    -0.77400
C482        C  0.65721191  0.36152524  0.40645974     0.98500
C483        C  0.59838301  0.35450855  0.35197150     0.93400
O484        O  0.60815534  0.36243086  0.33295589    -0.82700
O485        O  0.87484367  0.10763886  0.33990791    -0.82200
C486        C  0.81638931  0.18700624  0.37085105     0.97200
O487        O  0.81193136  0.16477906  0.37307389    -0.71300
O488        O  0.81245837  0.13708806  0.33497012    -0.74900
Al489      Al  0.82929772  0.13603275  0.36503032     1.49000
C490        C  0.81956864  0.13252233  0.31377962     0.92400
O491        O  0.86882191  0.16909236  0.30986838    -0.81100
O492        O  0.89948134  0.16547433  0.37206317    -0.74700
Al493      Al  0.87083468  0.13928630  0.32685473     1.90100
O494        O  0.87597634  0.19492786  0.33898357    -0.73800
O495        O  0.86120608  0.16729618  0.40044369    -0.73600
O496        O  0.83747589  0.19436616  0.36639398    -0.79300
O497        O  0.84185088  0.13289637  0.39703313    -0.77500
O498        O  0.85591279  0.15100801  0.35340721    -1.13600
O499        O  0.84056738  0.10387002  0.35950023    -0.72800
C500        C  0.85966305  0.09472129  0.35099383     0.97900
C501        C  0.87342520  0.19035317  0.31671344     0.94300
Al502      Al  0.86744629  0.17788408  0.36811234     1.55600
O503        O  0.84190368  0.13032489  0.30948240    -0.77400
C504        C  0.85230482  0.14856574  0.40995626     0.98500
C505        C  0.91249798  0.15466045  0.35674225     0.93400
O506        O  0.90321101  0.14568976  0.33783694    -0.82700
O507        O  0.87464140  0.39925662  0.15820982    -0.82200
C508        C  0.82169793  0.31522136  0.12602327     0.97200
O509        O  0.81612868  0.33723675  0.12528336    -0.71300
O510        O  0.81565601  0.36606994  0.16183936    -0.74900
Al511      Al  0.83236254  0.36680342  0.13216743     1.49000
C512        C  0.82215185  0.37065201  0.18318850     0.92400
O513        O  0.87507478  0.33830322  0.18901775    -0.81100
O514        O  0.90504113  0.33919626  0.12998409    -0.74700
Al515      Al  0.87366221  0.36751089  0.17126193     1.90100
O516        O  0.87818632  0.31021817  0.16115785    -0.73800
O517        O  0.86960794  0.33820163  0.09825976    -0.73600
O518        O  0.84334415  0.30900601  0.12943287    -0.79300
O519        O  0.84477355  0.36919155  0.10045253    -0.77500
O520        O  0.85970766  0.35370954  0.14474254    -1.13600
O521        O  0.84172083  0.39976467  0.13616187    -0.72800
C522        C  0.85934057  0.41061434  0.14573103     0.97900
C523        C  0.87740212  0.31642415  0.18318191     0.94300
Al524      Al  0.87283984  0.32683233  0.13103342     1.55600
O525        O  0.84419775  0.37364250  0.18820620    -0.77400
C526        C  0.85854537  0.35564991  0.08836779     0.98500
C527        C  0.91648005  0.35361570  0.14345349     0.93400
O528        O  0.90598295  0.36452279  0.16041251    -0.82700
O529        O  0.10720489  0.13360269  0.33637953    -0.82200
C530        C  0.19033807  0.18957625  0.36423488     0.97200
O531        O  0.16828770  0.19477747  0.36636954    -0.71300
O532        O  0.13998409  0.19419727  0.32877863    -0.74900
Al533      Al  0.13885285  0.17834053  0.35906289     1.49000
C534        C  0.13408506  0.18667812  0.30805935     0.92400
O535        O  0.16771980  0.13529173  0.30343231    -0.81100
O536        O  0.16724659  0.10726481  0.36547654    -0.74700
Al537      Al  0.13866444  0.13561323  0.32190976     1.90100
O538        O  0.19551753  0.13075514  0.33140957    -0.73800
O539        O  0.16951998  0.14500409  0.39400668    -0.73600
O540        O  0.19686519  0.16830249  0.35967985    -0.79300
O541        O  0.13613781  0.16651874  0.39114427    -0.77500
O542        O  0.15237316  0.15086949  0.34749466    -1.13600
O543        O  0.10588874  0.16875765  0.35454390    -0.72800
C544        C  0.09536934  0.14989505  0.34718124     0.97900
C545        C  0.18952364  0.13187078  0.30933022     0.94300
Al546      Al  0.17960155  0.13892580  0.36133189     1.55600
O547        O  0.13053174  0.16443115  0.30427823    -0.77400
C548        C  0.15135833  0.15500322  0.40367389     0.98500
C549        C  0.15453416  0.09442835  0.35160575     0.93400
O550        O  0.14396550  0.10353839  0.33353221    -0.82700
O551        O  0.16691447  0.39950064  0.12821568    -0.82200
C552        C  0.13225658  0.31880086  0.18234897     0.97200
O553        O  0.12995735  0.34086356  0.18781042    -0.71300
O554        O  0.17032307  0.36477476  0.18931585    -0.74900
Al555      Al  0.14117249  0.37010205  0.17253976     1.49000
C556        C  0.19143786  0.37020314  0.18283663     0.92400
O557        O  0.19509286  0.33738604  0.13258244    -0.81100
O558        O  0.13365414  0.34564540  0.10122361    -0.74700
Al559      Al  0.17932951  0.36759022  0.13131785     1.90100
O560        O  0.16499909  0.31317268  0.12320444    -0.73800
O561        O  0.10474299  0.34342869  0.13854155    -0.73600
O562        O  0.13708727  0.31261880  0.16097859    -0.79300
O563        O  0.11031615  0.37710482  0.15901809    -0.77500
O564        O  0.15226686  0.35622617  0.14527587    -1.13600
O565        O  0.15034260  0.40254727  0.16419458    -0.72800
C566        C  0.15837601  0.41222820  0.14511978     0.97900
C567        C  0.18732881  0.31678174  0.12671524     0.94300
Al568      Al  0.13647073  0.33103842  0.13216817     1.55600
O569        O  0.19596034  0.37513684  0.16097392    -0.77400
C570        C  0.09667306  0.36293292  0.14738530     0.98500
C571        C  0.15009226  0.35522663  0.08871866     0.93400
O572        O  0.16943166  0.36230840  0.09857384    -0.82700
O573        O  0.34215828  0.10587961  0.12008591    -0.82200
C574        C  0.37264313  0.18558889  0.17923935     0.97200
O575        O  0.37518647  0.16333410  0.18324745    -0.71300
O576        O  0.33603905  0.13694393  0.18250876    -0.74900
Al577      Al  0.36608705  0.13483338  0.16590059     1.49000
C578        C  0.31504724  0.13155810  0.17525849     0.92400
O579        O  0.31072590  0.16677103  0.12567157    -0.81100
O580        O  0.37248630  0.16481982  0.09579304    -0.74700
Al581      Al  0.32825955  0.13733696  0.12401333     1.90100
O582        O  0.33949185  0.19354061  0.12043965    -0.73800
O583        O  0.40140336  0.16567392  0.13360330    -0.73600
O584        O  0.36757772  0.19294148  0.15826159    -0.79300
O585        O  0.39815316  0.13107042  0.15292759    -0.77500
O586        O  0.35449252  0.14962473  0.13920890    -1.13600
O587        O  0.35933267  0.10259326  0.15544230    -0.72800
C588        C  0.35193987  0.09289660  0.13614099     0.97900
C589        C  0.31733038  0.18833987  0.12243873     0.94300
Al590      Al  0.36891157  0.17665271  0.12801312     1.55600
O591        O  0.31097382  0.12826635  0.15295612    -0.77400
C592        C  0.41096116  0.14676171  0.14223786     0.98500
C593        C  0.35774439  0.15319861  0.08280577     0.93400
O594        O  0.33913065  0.14371173  0.09188538    -0.82700
O595        O  0.34575342  0.39785973  0.36275465    -0.82200
C596        C  0.37709354  0.31400885  0.31009950     0.97200
O597        O  0.37946074  0.33600534  0.30466861    -0.71300
O598        O  0.34323371  0.36547019  0.30356977    -0.74900
Al599      Al  0.37263963  0.36587577  0.32078611     1.49000
C600        C  0.32178021  0.36912834  0.31011003     0.92400
O601        O  0.31561111  0.33657359  0.36264492    -0.81100
O602        O  0.37584295  0.33926590  0.39298170    -0.74700
Al603      Al  0.33310219  0.36592075  0.36161621     1.90100
O604        O  0.34400499  0.30969405  0.36850291    -0.73800
O605        O  0.40593784  0.33572250  0.35641567    -0.73600
O606        O  0.37309482  0.30786527  0.33169172    -0.79300
O607        O  0.40440235  0.36816381  0.33362648    -0.77500
O608        O  0.35978447  0.35260619  0.34791942    -1.13600
O609        O  0.36827574  0.39883343  0.33024201    -0.72800
C610        C  0.35805081  0.40955527  0.34758549     0.97900
C611        C  0.32196794  0.31514512  0.36680177     0.94300
Al612      Al  0.37344889  0.32583701  0.36114496     1.55600
O613        O  0.31641867  0.37163148  0.33209388    -0.77400
C614        C  0.41622299  0.35324588  0.34618445     0.98500
C615        C  0.36140556  0.35262851  0.40459735     0.93400
O616        O  0.34383369  0.36270581  0.39412826    -0.82700
O617        O  0.16737198  0.64532667  0.09947930    -0.82200
C618        C  0.13290717  0.68966915  0.18213133     0.97200
O619        O  0.13947915  0.69538834  0.16106283    -0.71300
O620        O  0.16545651  0.69261209  0.12165893    -0.74900
Al621      Al  0.13586175  0.67728884  0.13224912     1.49000
C622        C  0.18731426  0.68864406  0.12719554     0.92400
O623        O  0.19154899  0.62988347  0.16263566    -0.81100
O624        O  0.14431714  0.60489802  0.16345432    -0.74700
Al625      Al  0.17631810  0.63886653  0.13255526     1.90100
O626        O  0.16519920  0.64056528  0.19026141    -0.73800
O627        O  0.10584897  0.63308649  0.15704439    -0.73600
O628        O  0.12706296  0.66803419  0.18700308    -0.79300
O629        O  0.10291974  0.66867213  0.13978273    -0.77500
O630        O  0.14956065  0.65119867  0.14560146    -1.13600
O631        O  0.13126245  0.66177272  0.10163919    -0.72800
C632        C  0.14799440  0.65219239  0.08929347     0.97900
C633        C  0.18625108  0.63420490  0.18447012     0.94300
Al634      Al  0.13658750  0.63777213  0.17205595     1.55600
O635        O  0.19348635  0.66829346  0.13535063    -0.77400
C636        C  0.09320496  0.64930690  0.14709043     0.98500
C637        C  0.15312186  0.59495286  0.14480013     0.93400
O638        O  0.16237191  0.60780205  0.12839083    -0.82700
O639        O  0.34480049  0.63175214  0.39279143    -0.82200
C640        C  0.37124764  0.68676579  0.30979833     0.97200
O641        O  0.37648956  0.69176646  0.33159752    -0.71300
O642        O  0.33881438  0.69365246  0.35981214    -0.74900
Al643      Al  0.36795787  0.67635108  0.36197683     1.49000
C644        C  0.31793544  0.68761272  0.36643016     0.92400
O645        O  0.31078569  0.63728463  0.33429089    -0.81100
O646        O  0.37306529  0.60586497  0.33625474    -0.74700
Al647      Al  0.32938839  0.63552241  0.36247749     1.90100
O648        O  0.33795557  0.62778980  0.30718796    -0.73800
O649        O  0.40164260  0.64331646  0.33119753    -0.73600
O650        O  0.36534407  0.66557692  0.30404717    -0.79300
O651        O  0.39893623  0.66242362  0.36592424    -0.77500
O652        O  0.35526813  0.64949550  0.34881666    -1.13600
O653        O  0.36194520  0.66735446  0.39517974    -0.72800
C654        C  0.35498192  0.64795016  0.40513434     0.97900
C655        C  0.31610053  0.63180149  0.31290000     0.94300
Al656      Al  0.36840076  0.63673905  0.32207090     1.55600
O657        O  0.31362228  0.66565633  0.37158786    -0.77400
C658        C  0.41141741  0.65147195  0.35034748     0.98500
C659        C  0.35779836  0.59294785  0.34710646     0.93400
O660        O  0.33889366  0.60250728  0.35582885    -0.82700
O661        O  0.16073482  0.87202106  0.39461601    -0.82200
C662        C  0.13193862  0.82039965  0.31033258     0.97200
O663        O  0.12726089  0.81487600  0.33204232    -0.71300
O664        O  0.16509028  0.81078167  0.35976281    -0.74900
Al665      Al  0.13644548  0.82905286  0.36258914     1.49000
C666        C  0.18607401  0.81618601  0.36682136     0.92400
O667        O  0.19504984  0.86655928  0.33583515    -0.81100
O668        O  0.13402432  0.90067807  0.33906191    -0.74700
Al669      Al  0.17634500  0.86844438  0.36422500     1.90100
O670        O  0.16810459  0.87768708  0.30903280    -0.73800
O671        O  0.10367105  0.86445277  0.33309050    -0.73600
O672        O  0.13830139  0.84157045  0.30513019    -0.79300
O673        O  0.10591896  0.84395121  0.36698000    -0.77500
O674        O  0.14994566  0.85582486  0.35017055    -1.13600
O675        O  0.14289716  0.83674159  0.39600477    -0.72800
C676        C  0.15025908  0.85568803  0.40654428     0.97900
C677        C  0.18990445  0.87267467  0.31449511     0.94300
Al678      Al  0.13711662  0.86992791  0.32393763     1.55600
O679        O  0.19085445  0.83779448  0.37278131    -0.77400
C680        C  0.09360224  0.85561721  0.35173176     0.98500
C681        C  0.14996253  0.91251558  0.35029582     0.93400
O682        O  0.16848883  0.90185020  0.35843403    -0.82700
O683        O  0.33668607  0.85904413  0.09751143    -0.82200
C684        C  0.37472798  0.81711258  0.18085700     0.97200
O685        O  0.36718820  0.81051866  0.16032415    -0.71300
O686        O  0.33993109  0.81134093  0.12184829    -0.74900
Al687      Al  0.36936532  0.82751645  0.13072233     1.49000
C688        C  0.31804220  0.81556958  0.12666159     0.92400
O689        O  0.31353260  0.87421634  0.16158213    -0.81100
O690        O  0.36138179  0.90069813  0.15999942    -0.74700
Al691      Al  0.32813351  0.86574205  0.13075096     1.90100
O692        O  0.34141125  0.86532160  0.18845809    -0.73800
O693        O  0.39953518  0.87310415  0.15222780    -0.73600
O694        O  0.38067792  0.83893097  0.18441825    -0.79300
O695        O  0.40251762  0.83708272  0.13678010    -0.77500
O696        O  0.35561254  0.85396137  0.14337281    -1.13600
O697        O  0.37239808  0.84145541  0.09936809    -0.72800
C698        C  0.35541567  0.85079686  0.08712971     0.97900
C699        C  0.31971496  0.87038169  0.18339231     0.94300
Al700      Al  0.36955714  0.86831481  0.16892947     1.55600
O701        O  0.31138296  0.83617036  0.13360638    -0.77400
C702        C  0.41239802  0.85697330  0.14249931     0.98500
C703        C  0.35184982  0.91008861  0.14148706     0.93400
O704        O  0.34098550  0.89728033  0.12603059    -0.82700
C705        C  0.20982901  0.87363757  0.29587786     0.00900
C706        C  0.20895573  0.89021358  0.27621105     0.03800
C707        C  0.22765907  0.89065456  0.25873534    -0.12300
C708        C  0.24755886  0.87478177  0.26058881     0.23100
C709        C  0.24890653  0.85861099  0.28022869    -0.12900
C710        C  0.23018660  0.85778050  0.29762843     0.04500
C711        C  0.26621192  0.87388601  0.24096034     0.26900
C712        C  0.26173953  0.86009442  0.21993597    -0.13600
C713        C  0.27921336  0.85877751  0.20135095     0.05000
C714        C  0.30131417  0.87169422  0.20327988    -0.09500
C715        C  0.30592417  0.88521206  0.22469366     0.05800
C716        C  0.28845127  0.88623300  0.24341137    -0.13900
Br717      Br  0.27650402  0.83714311  0.28288736    -0.06000
Br718      Br  0.18281058  0.91317356  0.27296817    -0.00300
Br719      Br  0.27322333  0.83745396  0.17436062     0.00100
Br720      Br  0.29485783  0.90445446  0.27262782    -0.04300
Br721      Br  0.23255710  0.83335438  0.32263534     0.00200
Br722      Br  0.22618950  0.91304103  0.23188795    -0.03600
Br723      Br  0.23156452  0.84255113  0.21693913    -0.04500
Br724      Br  0.33586132  0.90294106  0.22849785    -0.00500
C725        C  0.37161906  0.70593065  0.29074957     0.00900
C726        C  0.35194002  0.70846074  0.27431721     0.03800
C727        C  0.35215399  0.72689777  0.25662000    -0.12300
C728        C  0.37173455  0.74318516  0.25544467     0.23100
C729        C  0.39109204  0.74100602  0.27193586    -0.12900
C730        C  0.39145697  0.72197243  0.28888342     0.04500
C731        C  0.37255093  0.76222441  0.23642395     0.26900
C732        C  0.38254398  0.75696619  0.21354051    -0.13600
C733        C  0.38447203  0.77524304  0.19584815     0.05000
C734        C  0.37605999  0.79896165  0.20079231    -0.09500
C735        C  0.36693359  0.80432930  0.22423236     0.05800
C736        C  0.36484823  0.78591044  0.24176090    -0.13900
Br737      Br  0.41705330  0.76445609  0.27132691    -0.06000
Br738      Br  0.32409532  0.68740801  0.27619000    -0.00300
Br739      Br  0.40032368  0.76794589  0.16547656     0.00100
Br740      Br  0.35111337  0.79289015  0.27322592    -0.04300
Br741      Br  0.42049109  0.71645041  0.30732989     0.00200
Br742      Br  0.32547719  0.73025660  0.23410293    -0.03600
Br743      Br  0.39362415  0.72454410  0.20656096    -0.04500
Br744      Br  0.35691820  0.83655670  0.23307235    -0.00500
C745        C  0.29845497  0.70658259  0.36769967     0.00900
C746        C  0.27897587  0.70460062  0.38438838     0.03800
C747        C  0.26035472  0.72214914  0.38471917    -0.12300
C748        C  0.26110509  0.74204486  0.36882538     0.23100
C749        C  0.28051900  0.74453946  0.35260663    -0.12900
C750        C  0.29904237  0.72700413  0.35187434     0.04500
C751        C  0.24146686  0.76051536  0.36899357     0.26900
C752        C  0.22286196  0.75945035  0.35156543    -0.13600
C753        C  0.20516923  0.77781547  0.35049816     0.05000
C754        C  0.20519845  0.79697371  0.36777568    -0.09500
C755        C  0.22395501  0.79771460  0.38543575     0.05800
C756        C  0.24220202  0.77982226  0.38564462    -0.13900
Br757      Br  0.28144985  0.77230213  0.33118439    -0.06000
Br758      Br  0.27790237  0.67891482  0.40806250    -0.00300
Br759      Br  0.18256340  0.77720858  0.32366883     0.00100
Br760      Br  0.26881474  0.78190814  0.40837780    -0.04300
Br761      Br  0.32434487  0.73156138  0.32813038     0.00200
Br762      Br  0.23357427  0.71918577  0.40702190    -0.03600
Br763      Br  0.22217146  0.73290395  0.32865142    -0.04500
Br764      Br  0.22490715  0.82253568  0.41008665    -0.00500
C765        C  0.20603876  0.70774680  0.12395413     0.00900
C766        C  0.22878864  0.70172613  0.11372019     0.03800
C767        C  0.24742485  0.71909968  0.11269400    -0.12300
C768        C  0.24330538  0.74280050  0.12108147     0.23100
C769        C  0.22039521  0.74927141  0.13021374    -0.12900
C770        C  0.20191009  0.73177121  0.13202425     0.04500
C771        C  0.26343894  0.76061742  0.12162820     0.26900
C772        C  0.27898968  0.76150232  0.14192465    -0.13600
C773        C  0.29714771  0.77929468  0.14334451     0.05000
C774        C  0.29996515  0.79611801  0.12438758    -0.09500
C775        C  0.28494069  0.79480722  0.10372702     0.05800
C776        C  0.26670921  0.77700128  0.10231306    -0.13900
Br777      Br  0.21471436  0.78216409  0.14083331    -0.06000
Br778      Br  0.23450204  0.66996632  0.10015930    -0.00300
Br779      Br  0.31762006  0.78112942  0.17167193     0.00100
Br780      Br  0.24620734  0.77488266  0.07401088    -0.04300
Br781      Br  0.17184108  0.74081028  0.14732589     0.00200
Br782      Br  0.27895004  0.71046177  0.10027752    -0.03600
Br783      Br  0.27530397  0.73829832  0.16781725    -0.04500
Br784      Br  0.28945193  0.81739212  0.07743076    -0.00500
C785        C  0.13175636  0.70873810  0.20107396     0.00900
C786        C  0.14448309  0.70606710  0.22326959     0.03800
C787        C  0.14398748  0.72467372  0.24070665    -0.12300
C788        C  0.13000339  0.74555009  0.23659999     0.23100
C789        C  0.11702794  0.74819328  0.21478868    -0.12900
C790        C  0.11879060  0.73040727  0.19660983     0.04500
C791        C  0.12982294  0.76518864  0.25489088     0.26900
C792        C  0.11226298  0.76532362  0.27329619    -0.13600
C793        C  0.11231182  0.78379526  0.29090957     0.05000
C794        C  0.13064876  0.80176000  0.29081349    -0.09500
C795        C  0.14839389  0.80133809  0.27217902     0.05800
C796        C  0.14770399  0.78328650  0.25417421    -0.13900
Br797      Br  0.09657508  0.77615213  0.21006649    -0.06000
Br798      Br  0.16443804  0.67819068  0.22956687    -0.00300
Br799      Br  0.08623344  0.78478583  0.31403872     0.00100
Br800      Br  0.17174488  0.78272423  0.22870398    -0.04300
Br801      Br  0.10401490  0.73657910  0.16544273     0.00200
Br802      Br  0.16293945  0.72206670  0.27016335    -0.03600
Br803      Br  0.08842659  0.73972391  0.27440090    -0.04500
Br804      Br  0.17498486  0.82411778  0.27167014    -0.00500
C805        C  0.20488998  0.63200907  0.20356618     0.00900
C806        C  0.20122562  0.61632455  0.22346998     0.03800
C807        C  0.21863596  0.61506517  0.24212917    -0.12300
C808        C  0.23980815  0.62919426  0.24073367     0.23100
C809        C  0.24336847  0.64500074  0.22108385    -0.12900
C810        C  0.22585604  0.64660333  0.20267249     0.04500
C811        C  0.25822375  0.62823688  0.26020590     0.26900
C812        C  0.25681280  0.64461851  0.27960757    -0.13600
C813        C  0.27581017  0.64605515  0.29654022     0.05000
C814        C  0.29625351  0.63041115  0.29456307    -0.09500
C815        C  0.29713553  0.61350967  0.27519543     0.05800
C816        C  0.27816655  0.61254637  0.25809848    -0.13900
Br817      Br  0.27209447  0.66499944  0.21988252    -0.06000
Br818      Br  0.17264699  0.59622823  0.22509550    -0.00300
Br819      Br  0.27383912  0.67117747  0.32093482     0.00100
Br820      Br  0.27927917  0.58984281  0.23143875    -0.04300
Br821      Br  0.22998175  0.67032613  0.17746123     0.00200
Br822      Br  0.21346491  0.59447852  0.26991295    -0.03600
Br823      Br  0.22879659  0.66553385  0.28248126    -0.04500
Br824      Br  0.32366567  0.59100758  0.27179329    -0.00500
C825        C  0.36155275  0.56618330  0.34874925     0.00900
C826        C  0.35664053  0.55359806  0.37055444     0.03800
C827        C  0.35802770  0.52806499  0.37130664    -0.12300
C828        C  0.36309263  0.51476025  0.35006775     0.23100
C829        C  0.36856992  0.52722401  0.32848140    -0.12900
C830        C  0.36900613  0.55276030  0.32810349     0.04500
C831        C  0.36200777  0.48770402  0.35024428     0.26900
C832        C  0.38347300  0.47377324  0.35005113    -0.13600
C833        C  0.38228051  0.44823043  0.34932084     0.05000
C834        C  0.35958685  0.43638201  0.34944504    -0.09500
C835        C  0.33811522  0.45038071  0.35007750     0.05800
C836        C  0.33934770  0.47588785  0.35013249    -0.13900
Br837      Br  0.37423469  0.50919448  0.29897627    -0.06000
Br838      Br  0.34932143  0.57115361  0.39993165    -0.00300
Br839      Br  0.41183691  0.42951577  0.34881167     0.00100
Br840      Br  0.30989448  0.49480555  0.34914696    -0.04300
Br841      Br  0.37991684  0.56871922  0.29894438     0.00200
Br842      Br  0.35296766  0.51107288  0.40145297    -0.03600
Br843      Br  0.41453736  0.48981237  0.35080430    -0.04500
Br844      Br  0.30675925  0.43482434  0.34946199    -0.00500
C845        C  0.35420782  0.06595003  0.13315165     0.00900
C846        C  0.37225825  0.05312032  0.14641560     0.03800
C847        C  0.37165651  0.02767121  0.14775531    -0.12300
C848        C  0.35495321  0.01447258  0.13376358     0.23100
C849        C  0.33846621  0.02683239  0.11869079    -0.12900
C850        C  0.33745435  0.05240736  0.11890393     0.04500
C851        C  0.35422909  0.98757125  0.13546424     0.26900
C852        C  0.37084168  0.97323971  0.12230254    -0.13600
C853        C  0.36991562  0.94776820  0.12393630     0.05000
C854        C  0.35242236  0.93661808  0.13874432    -0.09500
C855        C  0.33593945  0.95091471  0.15198633     0.05800
C856        C  0.33696274  0.97632178  0.15052538    -0.13900
Br857      Br  0.31682987  0.00830035  0.09823104    -0.06000
Br858      Br  0.39917192  0.06963385  0.16169175    -0.00300
Br859      Br  0.39286814  0.92807252  0.10642083     0.00100
Br860      Br  0.31518840  0.99580251  0.16974474    -0.04300
Br861      Br  0.31193659  0.06788585  0.10049964     0.00200
Br862      Br  0.39302471  0.01072831  0.16977031    -0.03600
Br863      Br  0.39517256  0.98860750  0.10254556    -0.04500
Br864      Br  0.31173977  0.93560007  0.17198320    -0.00500
C865        C  0.37581412  0.20332868  0.19930569     0.00900
C866        C  0.39133973  0.22344353  0.19625949     0.03800
C867        C  0.39333991  0.24110501  0.21465326    -0.12300
C868        C  0.37990245  0.23881006  0.23624515     0.23100
C869        C  0.36507159  0.21835738  0.23971025    -0.12900
C870        C  0.36304637  0.20063112  0.22139225     0.04500
C871        C  0.38011375  0.25853791  0.25473232     0.26900
C872        C  0.39592367  0.25753416  0.27483043    -0.13600
C873        C  0.39527937  0.27585649  0.29272413     0.05000
C874        C  0.37861221  0.29520830  0.29075928    -0.09500
C875        C  0.36287295  0.29613320  0.27047707     0.05800
C876        C  0.36361036  0.27787694  0.25262184    -0.13900
Br877      Br  0.34700662  0.21512729  0.26951061    -0.06000
Br878      Br  0.41071598  0.22639451  0.16726955    -0.00300
Br879      Br  0.41790502  0.27487256  0.31942826     0.00100
Br880      Br  0.34132616  0.27874576  0.22551998    -0.04300
Br881      Br  0.34163665  0.17350890  0.22648010     0.00200
Br882      Br  0.41437486  0.26862963  0.21029221    -0.03600
Br883      Br  0.41805390  0.23066446  0.27794374    -0.04500
Br884      Br  0.33913771  0.32150259  0.26745696    -0.00500
C885        C  0.15862324  0.43887321  0.14312902     0.00900
C886        C  0.14337561  0.45076005  0.12642760     0.03800
C887        C  0.14393482  0.47618083  0.12457071    -0.12300
C888        C  0.15812966  0.48987777  0.14083753     0.23100
C889        C  0.17332862  0.47801179  0.15762478    -0.12900
C890        C  0.17415514  0.45255674  0.15818513     0.04500
C891        C  0.15637016  0.51672185  0.14093219     0.26900
C892        C  0.17445628  0.53075782  0.12986382    -0.13600
C893        C  0.17357783  0.55621003  0.13124852     0.05000
C894        C  0.15369786  0.56797893  0.14271651    -0.09500
C895        C  0.13519996  0.55358546  0.15328974     0.05800
C896        C  0.13680681  0.52812353  0.15264577    -0.13900
Br897      Br  0.19283528  0.49666232  0.17999373    -0.06000
Br898      Br  0.12044874  0.43242923  0.10745423    -0.00300
Br899      Br  0.20120649  0.57405106  0.11917079     0.00100
Br900      Br  0.11230851  0.50853683  0.16816252    -0.04300
Br901      Br  0.19732861  0.43651214  0.17886410     0.00200
Br902      Br  0.12563794  0.49240272  0.09956596    -0.03600
Br903      Br  0.20064760  0.51480003  0.11294597    -0.04500
Br904      Br  0.10711932  0.56804858  0.16844063    -0.00500
C905        C  0.30259186  0.37027283  0.29165406     0.00900
C906        C  0.30285568  0.38886159  0.27418350     0.03800
C907        C  0.28492364  0.38954292  0.25606613    -0.12300
C908        C  0.26681080  0.37160882  0.25541507     0.23100
C909        C  0.26658936  0.35294286  0.27276771    -0.12900
C910        C  0.28449534  0.35223925  0.29086793     0.04500
C911        C  0.24797671  0.37215984  0.23639037     0.26900
C912        C  0.22611088  0.38453155  0.24058493    -0.13600
C913        C  0.20750712  0.38380379  0.22316346     0.05000
C914        C  0.21099385  0.37103665  0.20117015    -0.09500
C915        C  0.23303254  0.35856494  0.19714480     0.05800
C916        C  0.25151154  0.35928596  0.21468600    -0.13900
Br917      Br  0.24187601  0.32816428  0.27137752    -0.06000
Br918      Br  0.32748511  0.41364356  0.27542656    -0.00300
Br919      Br  0.17744530  0.40050569  0.22980755     0.00100
Br920      Br  0.28166682  0.34227161  0.20935326    -0.04300
Br921      Br  0.28493915  0.32567173  0.31350245     0.00200
Br922      Br  0.28506005  0.41489593  0.23203590    -0.03600
Br923      Br  0.22183363  0.40242713  0.27038179    -0.04500
Br924      Br  0.23756360  0.33858303  0.16882966    -0.00500
C925        C  0.29871907  0.20776658  0.12127447     0.00900
C926        C  0.29973921  0.22772791  0.13737771     0.03800
C927        C  0.28119461  0.24527381  0.13727671    -0.12300
C928        C  0.26146977  0.24301146  0.12120098     0.23100
C929        C  0.26047136  0.22332851  0.10496121    -0.12900
C930        C  0.27907806  0.20582023  0.10489065     0.04500
C931        C  0.24162661  0.26122773  0.12166232     0.26900
C932        C  0.22240612  0.25873587  0.13826318    -0.13600
C933        C  0.20432663  0.27668536  0.13969594     0.05000
C934        C  0.20490174  0.29677336  0.12389874    -0.09500
C935        C  0.22359551  0.29869977  0.10660718     0.05800
C936        C  0.24227115  0.28132718  0.10594720    -0.13900
Br937      Br  0.23330346  0.22033200  0.08306970    -0.06000
Br938      Br  0.32560515  0.23069519  0.16071955    -0.00300
Br939      Br  0.17981487  0.27435509  0.16440022     0.00100
Br940      Br  0.26930273  0.28548803  0.08423756    -0.04300
Br941      Br  0.27801159  0.17966751  0.08166000     0.00200
Br942      Br  0.28239301  0.27233400  0.15952625    -0.03600
Br943      Br  0.22132975  0.23098102  0.15951095    -0.04500
Br944      Br  0.22308870  0.32469935  0.08322577    -0.00500
C945        C  0.14732317  0.93926249  0.35337475     0.00900
C946        C  0.15324640  0.95057478  0.37572433     0.03800
C947        C  0.15189265  0.97598612  0.37809226    -0.12300
C948        C  0.14589389  0.99041686  0.35794618     0.23100
C949        C  0.13936892  0.97932774  0.33589110    -0.12900
C950        C  0.13961271  0.95389686  0.33367381     0.04500
C951        C  0.14840812  0.01723798  0.35914733     0.26900
C952        C  0.12804411  0.03209824  0.36332607    -0.13600
C953        C  0.13012348  0.05748394  0.36147969     0.05000
C954        C  0.15268161  0.06809039  0.35595013    -0.09500
C955        C  0.17334361  0.05327608  0.35318932     0.05800
C956        C  0.17113996  0.02790836  0.35449033    -0.13900
Br957      Br  0.13090518  0.99931347  0.30838900    -0.06000
Br958      Br  0.16299931  0.93167720  0.40349567    -0.00300
Br959      Br  0.10219953  0.07783245  0.36681743     0.00100
Br960      Br  0.19906113  0.00757550  0.34882879    -0.04300
Br961      Br  0.13068379  0.93979660  0.30286979     0.00200
Br962      Br  0.15811245  0.99132144  0.40895654    -0.03600
Br963      Br  0.09731896  0.01753725  0.37120929    -0.04500
Br964      Br  0.20450959  0.06759719  0.34634877    -0.00500
C965        C  0.20888404  0.20858237  0.36730430     0.00900
C966        C  0.20965773  0.22843766  0.35124525     0.03800
C967        C  0.22848027  0.24550385  0.35308986    -0.12300
C968        C  0.24616382  0.24321401  0.37142140     0.23100
C969        C  0.24490391  0.22393043  0.38806694    -0.12900
C970        C  0.22639865  0.20650848  0.38589733     0.04500
C971        C  0.26664059  0.26057151  0.37222063     0.26900
C972        C  0.28673574  0.25685527  0.35700171    -0.13600
C973        C  0.30478499  0.27470464  0.35515426     0.05000
C974        C  0.30331547  0.29604660  0.36929319    -0.09500
C975        C  0.28346756  0.29937711  0.38511704     0.05800
C976        C  0.26511999  0.28170210  0.38645952    -0.13900
Br977      Br  0.26878149  0.22129898  0.41354671    -0.06000
Br978      Br  0.18564443  0.23186292  0.32600340    -0.00300
Br979      Br  0.32989253  0.27068882  0.33120294     0.00100
Br980      Br  0.23755718  0.28650106  0.40739547    -0.04300
Br981      Br  0.22470404  0.18014205  0.40881123     0.00200
Br982      Br  0.23070436  0.27166906  0.32995663    -0.03600
Br983      Br  0.28898340  0.22746909  0.33805214    -0.04500
Br984      Br  0.28133278  0.32801487  0.40514641    -0.00500
C985        C  0.20829227  0.12953848  0.28995111     0.00900
C986        C  0.20510883  0.11286393  0.27068832     0.03800
C987        C  0.22201734  0.11180747  0.25148570    -0.12300
C988        C  0.24221928  0.12742797  0.25124517     0.23100
C989        C  0.24559722  0.14390189  0.27049689    -0.12900
C990        C  0.22887959  0.14485641  0.28983412     0.04500
C991        C  0.25982791  0.12690510  0.23065264     0.26900
C992        C  0.28063162  0.11210328  0.23181317    -0.13600
C993        C  0.29818526  0.11301381  0.21324671     0.05000
C994        C  0.29517895  0.12884327  0.19334372    -0.09500
C995        C  0.27370401  0.14279306  0.19162544     0.05800
C996        C  0.25621513  0.14190868  0.21028327    -0.13900
Br997      Br  0.27296928  0.16570768  0.26985075    -0.06000
Br998      Br  0.17806385  0.09071295  0.27095225    -0.00300
Br999      Br  0.32591679  0.09170310  0.21456909     0.00100
Br1000     Br  0.22744044  0.16176428  0.20841887    -0.04300
Br1001     Br  0.23388037  0.16821919  0.31536019     0.00200
Br1002     Br  0.21754768  0.08911275  0.22522998    -0.03600
Br1003     Br  0.28511126  0.09073781  0.25909285    -0.04500
Br1004     Br  0.26836664  0.16401234  0.16439938    -0.00500
C1005       C  0.13101824  0.20439728  0.28812214     0.00900
C1006       C  0.14481601  0.20243513  0.26663410     0.03800
C1007       C  0.14287611  0.22030262  0.24848948    -0.12300
C1008       C  0.12747754  0.24039673  0.25188055     0.23100
C1009       C  0.11338050  0.24214091  0.27306467    -0.12900
C1010       C  0.11503449  0.22416158  0.29107560     0.04500
C1011       C  0.12792069  0.26085971  0.23438122     0.26900
C1012       C  0.14550202  0.27912469  0.23710904    -0.13600
C1013       C  0.14674299  0.29823557  0.22031673     0.05000
C1014       C  0.12975426  0.29979458  0.20116274    -0.09500
C1015       C  0.11154595  0.28195568  0.19901463     0.05800
C1016       C  0.11089641  0.26229724  0.21533785    -0.13900
Br1017     Br  0.09244589  0.26975217  0.27766860    -0.06000
Br1018     Br  0.16794882  0.17654746  0.26269249    -0.00300
Br1019     Br  0.17293140  0.32106871  0.22294435     0.00100
Br1020     Br  0.08695269  0.23713637  0.21159628    -0.04300
Br1021     Br  0.09512524  0.22658729  0.31972931     0.00200
Br1022     Br  0.16198755  0.21787039  0.21927441    -0.03600
Br1023     Br  0.16804322  0.27774357  0.26397202    -0.04500
Br1024     Br  0.08698060  0.28497301  0.17424021    -0.00500
C1025       C  0.94276189  0.35762201  0.13989832     0.00900
C1026       C  0.95922598  0.33840325  0.14348464     0.03800
C1027       C  0.98435041  0.34268221  0.14241506    -0.12300
C1028       C  0.99320608  0.36625875  0.13820316     0.23100
C1029       C  0.97682441  0.38543560  0.13424023    -0.12900
C1030       C  0.95164407  0.38110273  0.13496863     0.04500
C1031       C  0.01973051  0.37071504  0.13993294     0.26900
C1032       C  0.03058193  0.37282438  0.16300161    -0.13600
C1033       C  0.05592158  0.37117167  0.16547288     0.05000
C1034       C  0.07059495  0.36851674  0.14470252    -0.09500
C1035       C  0.05983420  0.36892489  0.12145222     0.05800
C1036       C  0.03441117  0.36958724  0.11908309    -0.13900
Br1037     Br  0.98896742  0.41772749  0.12880789    -0.06000
Br1038     Br  0.94751949  0.30662963  0.15205524    -0.00300
Br1039     Br  0.07008393  0.36992915  0.19749473     0.00100
Br1040     Br  0.01961889  0.36767857  0.08742241    -0.04300
Br1041     Br  0.92930773  0.40738438  0.12926837     0.00200
Br1042     Br  0.00691420  0.31644314  0.14783884    -0.03600
Br1043     Br  0.01040414  0.37655464  0.19131633    -0.04500
Br1044     Br  0.07991789  0.36867299  0.09284318    -0.00500
C1045       C  0.93920974  0.15327836  0.36017665     0.00900
C1046       C  0.95350647  0.17430265  0.35756195     0.03800
C1047       C  0.97905117  0.17261392  0.35737077    -0.12300
C1048       C  0.99055525  0.14990599  0.35988958     0.23100
C1049       C  0.97627932  0.12909149  0.36393577    -0.12900
C1050       C  0.95070186  0.13077742  0.36408889     0.04500
C1051       C  0.01750257  0.14790933  0.35706506     0.26900
C1052       C  0.02764896  0.14453536  0.33383066    -0.13600
C1053       C  0.05306428  0.14440680  0.33067672     0.05000
C1054       C  0.06867070  0.14752838  0.35080578    -0.09500
C1055       C  0.05845825  0.15025809  0.37417669     0.05800
C1056       C  0.03302573  0.15036445  0.37726956    -0.13900
Br1057     Br  0.99190250  0.09825023  0.36886256    -0.06000
Br1058     Br  0.93805267  0.20534331  0.35307438    -0.00300
Br1059     Br  0.06632097  0.14181060  0.29841308     0.00100
Br1060     Br  0.01928000  0.15412631  0.40918437    -0.04300
Br1061     Br  0.93128013  0.10240923  0.37020119     0.00200
Br1062     Br  0.99842176  0.20134815  0.35296072    -0.03600
Br1063     Br  0.00648526  0.14069370  0.30618633    -0.04500
Br1064     Br  0.07923773  0.15347471  0.40218422    -0.00500
C1065       C  0.87854262  0.29786531  0.20270093     0.00900
C1066       C  0.86087079  0.27938674  0.20387725     0.03800
C1067       C  0.86106963  0.26260015  0.22313683    -0.12300
C1068       C  0.87865931  0.26431234  0.24163844     0.23100
C1069       C  0.89613984  0.28291850  0.24072024    -0.12900
C1070       C  0.89615068  0.29958316  0.22129393     0.04500
C1071       C  0.87879004  0.24623543  0.26178508     0.26900
C1072       C  0.86554982  0.25059194  0.28317564    -0.13600
C1073       C  0.86422417  0.23270048  0.30143608     0.05000
C1074       C  0.87594855  0.21003627  0.29828770    -0.09500
C1075       C  0.88959035  0.20600141  0.27691470     0.05800
C1076       C  0.89111427  0.22408420  0.25892263    -0.13900
Br1077     Br  0.91995393  0.28554222  0.26624954    -0.06000
Br1078     Br  0.83520493  0.27794292  0.18015018    -0.00300
Br1079     Br  0.84494567  0.23916647  0.32989017     0.00100
Br1080     Br  0.91001661  0.21860738  0.23001938    -0.04300
Br1081     Br  0.92072134  0.32442199  0.21987909     0.00200
Br1082     Br  0.83695885  0.23729678  0.22451919    -0.03600
Br1083     Br  0.84864821  0.28100657  0.28698465    -0.04500
Br1084     Br  0.90691247  0.17595742  0.27218845    -0.00500
C1085       C  0.57169681  0.35560462  0.35422620     0.00900
C1086       C  0.55841844  0.33409453  0.35824779     0.03800
C1087       C  0.53292613  0.33460296  0.35822264    -0.12300
C1088       C  0.52054579  0.35640079  0.35348717     0.23100
C1089       C  0.53369963  0.37786077  0.34934620    -0.12900
C1090       C  0.55921423  0.37756213  0.35006703     0.04500
C1091       C  0.49370564  0.35644429  0.35168890     0.26900
C1092       C  0.48250338  0.35398869  0.32882476    -0.13600
C1093       C  0.45708978  0.35318414  0.32705189     0.05000
C1094       C  0.44276239  0.35546720  0.34809068    -0.09500
C1095       C  0.45395839  0.35786144  0.37097749     0.05800
C1096       C  0.47941389  0.35810338  0.37279044    -0.13900
Br1097     Br  0.51662157  0.40743459  0.34176961    -0.06000
Br1098     Br  0.57485128  0.30337118  0.36152243    -0.00300
Br1099     Br  0.44203442  0.34681927  0.29603066     0.00100
Br1100     Br  0.49481234  0.35987308  0.40418656    -0.04300
Br1101     Br  0.57692996  0.40739218  0.34576630     0.00200
Br1102     Br  0.51478622  0.30520437  0.36365238    -0.03600
Br1103     Br  0.50211881  0.35085402  0.30002966    -0.04500
Br1104     Br  0.43441330  0.36102291  0.39980525    -0.00500
C1105       C  0.71191737  0.30181285  0.37370279     0.00900
C1106       C  0.73426726  0.30317116  0.36125543     0.03800
C1107       C  0.75114198  0.28413671  0.36320290    -0.12300
C1108       C  0.74543918  0.26332505  0.37677912     0.23100
C1109       C  0.72363622  0.26232255  0.38993558    -0.12900
C1110       C  0.70721343  0.28179908  0.38892601     0.04500
C1111       C  0.76221113  0.24232047  0.37658951     0.26900
C1112       C  0.76102887  0.22535482  0.35749399    -0.13600
C1113       C  0.77820977  0.20656414  0.35608438     0.05000
C1114       C  0.79670927  0.20483222  0.37368648    -0.09500
C1115       C  0.79702804  0.22095888  0.39351021     0.05800
C1116       C  0.77989584  0.23979503  0.39488026    -0.13900
Br1117     Br  0.71617041  0.23401569  0.40897339    -0.06000
Br1118     Br  0.74160019  0.33016964  0.34035000    -0.00300
Br1119     Br  0.77676079  0.18374743  0.32961300     0.00100
Br1120     Br  0.78085970  0.26250297  0.42146541    -0.04300
Br1121     Br  0.67895523  0.28163006  0.40953602     0.00200
Br1122     Br  0.78212364  0.28625559  0.34706752    -0.03600
Br1123     Br  0.73615628  0.22832148  0.33296814    -0.04500
Br1124     Br  0.82042998  0.21660755  0.41920495    -0.00500
C1125       C  0.80344479  0.37242762  0.20241057     0.00900
C1126       C  0.80671251  0.36079333  0.22509221     0.03800
C1127       C  0.78785110  0.36078967  0.24225454    -0.12300
C1128       C  0.76595963  0.37287614  0.23721848     0.23100
C1129       C  0.76275687  0.38481464  0.21492441    -0.12900
C1130       C  0.78142006  0.38471504  0.19759565     0.04500
C1131       C  0.74634123  0.37317949  0.25553569     0.26900
C1132       C  0.72950383  0.35406031  0.25642858    -0.13600
C1133       C  0.71137160  0.35397961  0.27431095     0.05000
C1134       C  0.70998637  0.37304203  0.29133049    -0.09500
C1135       C  0.72635509  0.39254587  0.28990163     0.05800
C1136       C  0.74468542  0.39248826  0.27218884    -0.13900
Br1137     Br  0.73248557  0.40100542  0.20809863    -0.06000
Br1138     Br  0.83641026  0.34398241  0.23288859    -0.00300
Br1139     Br  0.68893633  0.32736640  0.27566408     0.00100
Br1140     Br  0.76783950  0.41860806  0.27082639    -0.04300
Br1141     Br  0.77690157  0.40258122  0.16778152     0.00200
Br1142     Br  0.79149394  0.34356409  0.27255039    -0.03600
Br1143     Br  0.73165824  0.32780396  0.23332793    -0.04500
Br1144     Br  0.72297074  0.41975459  0.31160276    -0.00500
C1145       C  0.56780486  0.15206339  0.13936979     0.00900
C1146       C  0.55305470  0.17227223  0.13362655     0.03800
C1147       C  0.52755240  0.16978881  0.13216802    -0.12300
C1148       C  0.51642518  0.14722198  0.13670214     0.23100
C1149       C  0.53114493  0.12682158  0.14112212    -0.12900
C1150       C  0.55664461  0.12915215  0.14227328     0.04500
C1151       C  0.48930630  0.14522169  0.13805812     0.26900
C1152       C  0.47753112  0.14692131  0.16071207    -0.13600
C1153       C  0.45196506  0.14629834  0.16211691     0.05000
C1154       C  0.43781697  0.14400978  0.14087067    -0.09500
C1155       C  0.44960226  0.14154449  0.11827751     0.05800
C1156       C  0.47521847  0.14191474  0.11690503    -0.13900
Br1157     Br  0.51611450  0.09562285  0.14570801    -0.06000
Br1158     Br  0.56741299  0.20382951  0.12913571    -0.00300
Br1159     Br  0.43626743  0.15002428  0.19313615     0.00100
Br1160     Br  0.49116914  0.13781103  0.08609110    -0.04300
Br1161     Br  0.57619759  0.10052559  0.14666446     0.00200
Br1162     Br  0.50763503  0.19744907  0.12435050    -0.03600
Br1163     Br  0.49657698  0.15053220  0.18987470    -0.04500
Br1164     Br  0.43061417  0.13736638  0.08921356    -0.00500
C1165       C  0.71042784  0.20573183  0.12390331     0.00900
C1166       C  0.73343120  0.20186690  0.13470193     0.03800
C1167       C  0.75200561  0.21919909  0.13207671    -0.12300
C1168       C  0.74809045  0.24022650  0.11816827     0.23100
C1169       C  0.72583061  0.24329615  0.10594259    -0.12900
C1170       C  0.70696579  0.22629198  0.10898801     0.04500
C1171       C  0.76634552  0.26018161  0.11874834     0.26900
C1172       C  0.76377939  0.27889931  0.13593885    -0.13600
C1173       C  0.78180614  0.29682084  0.13833264     0.05000
C1174       C  0.80244782  0.29651761  0.12314940    -0.09500
C1175       C  0.80458787  0.27819270  0.10534942     0.05800
C1176       C  0.78673935  0.25993215  0.10335413    -0.13900
Br1177     Br  0.72131073  0.27100921  0.08514564    -0.06000
Br1178     Br  0.73962402  0.17354922  0.15421718    -0.00300
Br1179     Br  0.77862937  0.32074658  0.16363923     0.00100
Br1180     Br  0.79022586  0.23439373  0.07972850    -0.04300
Br1181     Br  0.67671188  0.23087727  0.09191684     0.00200
Br1182     Br  0.78274088  0.21468965  0.14831367    -0.03600
Br1183     Br  0.73557549  0.27952537  0.15667487    -0.04500
Br1184     Br  0.83137512  0.27873184  0.08290048    -0.00500
C1185       C  0.80135911  0.12992893  0.29380682     0.00900
C1186       C  0.80414916  0.14255015  0.27162820     0.03800
C1187       C  0.78604938  0.14120406  0.25351560    -0.12300
C1188       C  0.76435255  0.12839002  0.25778186     0.23100
C1189       C  0.76166209  0.11549993  0.27969832    -0.12900
C1190       C  0.78034830  0.11566241  0.29726432     0.04500
C1191       C  0.74408820  0.12943175  0.23965160     0.26900
C1192       C  0.73001173  0.15071713  0.23743683    -0.13600
C1193       C  0.71186912  0.15242440  0.21942748     0.05000
C1194       C  0.70685016  0.13248767  0.20422230    -0.09500
C1195       C  0.72010836  0.11086193  0.20710486     0.05800
C1196       C  0.73905504  0.10950326  0.22432966    -0.13900
Br1197     Br  0.73197376  0.09816604  0.28597823    -0.06000
Br1198     Br  0.83174508  0.16327459  0.26629084    -0.00300
Br1199     Br  0.69435210  0.18236647  0.21506949     0.00100
Br1200     Br  0.75848086  0.08053887  0.22650963    -0.04300
Br1201     Br  0.77758600  0.09519538  0.32549881     0.00200
Br1202     Br  0.79078569  0.15719094  0.22272765    -0.03600
Br1203     Br  0.73553645  0.17753982  0.25926741    -0.04500
Br1204     Br  0.71176814  0.08294942  0.18774166    -0.00500
C1205       C  0.63318370  0.29766553  0.29690182     0.00900
C1206       C  0.64944977  0.27796801  0.29631138     0.03800
C1207       C  0.64754253  0.26052882  0.27780598    -0.12300
C1208       C  0.62913566  0.26252068  0.26015953     0.23100
C1209       C  0.61224438  0.28161095  0.26138318    -0.12900
C1210       C  0.61448280  0.29938214  0.27952434     0.04500
C1211       C  0.62841056  0.24518023  0.23965607     0.26900
C1212       C  0.64115478  0.25042916  0.21820710    -0.13600
C1213       C  0.64228110  0.23317975  0.19941602     0.05000
C1214       C  0.63034687  0.21062816  0.20196551    -0.09500
C1215       C  0.61642999  0.20609870  0.22298370     0.05800
C1216       C  0.61579934  0.22318054  0.24191186    -0.13900
Br1217     Br  0.58623292  0.28343089  0.23803227    -0.06000
Br1218     Br  0.67540519  0.27569047  0.31971588    -0.00300
Br1219     Br  0.66141483  0.24035466  0.17106747     0.00100
Br1220     Br  0.59809386  0.21638061  0.27126540    -0.04300
Br1221     Br  0.59195311  0.32615391  0.28057446     0.00200
Br1222     Br  0.67057957  0.23424747  0.27605141    -0.03600
Br1223     Br  0.65766696  0.28114579  0.21508598    -0.04500
Br1224     Br  0.59717160  0.17701666  0.22553455    -0.00500
C1225       C  0.56691978  0.64533945  0.34811051     0.00900
C1226       C  0.55632813  0.64142612  0.37112155     0.03800
C1227       C  0.53087438  0.63991408  0.37342959    -0.12300
C1228       C  0.51588077  0.64270883  0.35288238     0.23100
C1229       C  0.52641933  0.64567919  0.32985218    -0.12900
C1230       C  0.55178846  0.64692978  0.32740796     0.04500
C1231       C  0.48904129  0.64432388  0.35539739     0.26900
C1232       C  0.47443520  0.62353029  0.35297085    -0.13600
C1233       C  0.44896049  0.62570217  0.35257536     0.05000
C1234       C  0.43794934  0.64873511  0.35423090    -0.09500
C1235       C  0.45260077  0.66924931  0.35890385     0.05800
C1236       C  0.47804677  0.66711526  0.35879542    -0.13900
Br1237     Br  0.50578214  0.64880937  0.30168472    -0.06000
Br1238     Br  0.57659260  0.63759245  0.39945868    -0.00300
Br1239     Br  0.42915786  0.59694575  0.35181627     0.00100
Br1240     Br  0.49803765  0.69565747  0.36197546    -0.04300
Br1241     Br  0.56540655  0.65262336  0.29567086     0.00200
Br1242     Br  0.51633098  0.63409133  0.40466957    -0.03600
Br1243     Br  0.48946352  0.59220932  0.34942952    -0.04500
Br1244     Br  0.43824554  0.70042695  0.36555954    -0.00500
C1245       C  0.65138733  0.56794241  0.34741512     0.00900
C1246       C  0.62858827  0.55613294  0.34717423     0.03800
C1247       C  0.62743342  0.53068128  0.34678613    -0.12300
C1248       C  0.64890299  0.51695372  0.34654620     0.23100
C1249       C  0.67158463  0.52854216  0.34673158    -0.12900
C1250       C  0.67292316  0.55394312  0.34723097     0.04500
C1251       C  0.64784375  0.49020116  0.34612378     0.26900
C1252       C  0.64854735  0.47723162  0.36806957    -0.13600
C1253       C  0.64984620  0.45181687  0.36774832     0.05000
C1254       C  0.64984961  0.43930398  0.34543860    -0.09500
C1255       C  0.64844548  0.45233080  0.32344247     0.05800
C1256       C  0.64773009  0.47778398  0.32381156    -0.13900
Br1257     Br  0.70085385  0.50932929  0.34541079    -0.06000
Br1258     Br  0.59870465  0.57446180  0.34772602    -0.00300
Br1259     Br  0.65150436  0.43424252  0.39792490     0.00100
Br1260     Br  0.64780992  0.49584536  0.29382778    -0.04300
Br1261     Br  0.70453077  0.56901511  0.34574390     0.00200
Br1262     Br  0.59648378  0.51438457  0.34617190    -0.03600
Br1263     Br  0.64835704  0.49452259  0.39850844    -0.04500
Br1264     Br  0.64919665  0.43556293  0.29269300    -0.00500
C1265       C  0.43940701  0.86051996  0.13880581     0.00900
C1266       C  0.45306482  0.84421718  0.12407296     0.03800
C1267       C  0.47868439  0.84515235  0.12380478    -0.12300
C1268       C  0.49121274  0.86254826  0.13764245     0.23100
C1269       C  0.47796047  0.88006310  0.15058019    -0.12900
C1270       C  0.45231166  0.87943940  0.15095835     0.04500
C1271       C  0.51833663  0.86179958  0.13921525     0.26900
C1272       C  0.52967455  0.85093052  0.15941592    -0.13600
C1273       C  0.55519509  0.84983966  0.16093711     0.05000
C1274       C  0.56966635  0.85816362  0.14149754    -0.09500
C1275       C  0.55826150  0.86823717  0.12089386     0.05800
C1276       C  0.53280699  0.87108930  0.12029907    -0.13900
Br1277     Br  0.49538594  0.90481193  0.16826215    -0.06000
Br1278     Br  0.43758952  0.82097804  0.10275481    -0.00300
Br1279     Br  0.57012130  0.83588517  0.18938173     0.00100
Br1280     Br  0.51770235  0.88837596  0.09394664    -0.04300
Br1281     Br  0.43592452  0.90523842  0.16814562     0.00200
Br1282     Br  0.49704594  0.82214303  0.10477748    -0.03600
Br1283     Br  0.51005877  0.83703535  0.18481567    -0.04500
Br1284     Br  0.57742676  0.87807728  0.09339616    -0.00500
C1285       C  0.64292015  0.06953589  0.14635932     0.00900
C1286       C  0.64098914  0.05444085  0.16692215     0.03800
C1287       C  0.63951994  0.02910085  0.16406768    -0.12300
C1288       C  0.64032111  0.01866814  0.14072065     0.23100
C1289       C  0.64105258  0.03377079  0.12015571    -0.12900
C1290       C  0.64229195  0.05911761  0.12295183     0.04500
C1291       C  0.64341080  0.99197116  0.13810795     0.26900
C1292       C  0.66673733  0.98186138  0.14045362    -0.13600
C1293       C  0.66994271  0.95654024  0.14007899     0.05000
C1294       C  0.64964469  0.94098974  0.13748444    -0.09500
C1295       C  0.62655280  0.95132901  0.13323836     0.05800
C1296       C  0.62339180  0.97669875  0.13391905    -0.13900
Br1297     Br  0.64131111  0.01958768  0.08816948    -0.06000
Br1298     Br  0.64255181  0.06815047  0.19910663    -0.00300
Br1299     Br  0.70231514  0.94373966  0.14406382     0.00100
Br1300     Br  0.59160151  0.99062856  0.12961446    -0.04300
Br1301     Br  0.64307658  0.07951018  0.09458048     0.00200
Br1302     Br  0.63758426  0.00837463  0.19216429    -0.03600
Br1303     Br  0.69429326  0.00303261  0.14493672    -0.04500
Br1304     Br  0.59948691  0.93096069  0.12477846    -0.00500
C1305       C  0.63136151  0.70684254  0.28794275     0.00900
C1306       C  0.61622103  0.72739672  0.29047115     0.03800
C1307       C  0.61752201  0.74643545  0.27351267    -0.12300
C1308       C  0.63353364  0.74490391  0.25371314     0.23100
C1309       C  0.64813444  0.72426980  0.25071466    -0.12900
C1310       C  0.64721321  0.70536182  0.26774512     0.04500
C1311       C  0.63447873  0.76459702  0.23543105     0.26900
C1312       C  0.61909692  0.76369033  0.21511820    -0.13600
C1313       C  0.61991469  0.78209605  0.19749669     0.05000
C1314       C  0.63630374  0.80181167  0.20012255    -0.09500
C1315       C  0.65252204  0.80195913  0.22018682     0.05800
C1316       C  0.65155711  0.78337354  0.23767987    -0.13900
Br1317     Br  0.66963175  0.72219382  0.22312844    -0.06000
Br1318     Br  0.59274110  0.72919515  0.31637048    -0.00300
Br1319     Br  0.59825302  0.77942710  0.16998469     0.00100
Br1320     Br  0.67454660  0.78263354  0.26417684    -0.04300
Br1321     Br  0.66906504  0.67841142  0.26348406     0.00200
Br1322     Br  0.59738262  0.77477076  0.27724928    -0.03600
Br1323     Br  0.59756551  0.73634864  0.21111260    -0.04500
Br1324     Br  0.67783468  0.82602059  0.22302368    -0.00500
C1325       C  0.85548161  0.56633025  0.13432747     0.00900
C1326       C  0.87823984  0.55496059  0.13731579     0.03800
C1327       C  0.87992965  0.52948113  0.13822520    -0.12300
C1328       C  0.85892143  0.51514528  0.13594783     0.23100
C1329       C  0.83636207  0.52640402  0.13169014    -0.12900
C1330       C  0.83466223  0.55188915  0.13061055     0.04500
C1331       C  0.86041051  0.48827823  0.13853199     0.26900
C1332       C  0.86448762  0.47348897  0.11806198    -0.13600
C1333       C  0.86516119  0.44804735  0.12049047     0.05000
C1334       C  0.86120915  0.43725810  0.14332297    -0.09500
C1335       C  0.85751944  0.45206791  0.16385188     0.05800
C1336       C  0.85730388  0.47748348  0.16149266    -0.13900
Br1337     Br  0.80763777  0.50675367  0.12830314    -0.06000
Br1338     Br  0.90731498  0.57423734  0.13908393    -0.00300
Br1339     Br  0.87229784  0.42798754  0.09274285     0.00100
Br1340     Br  0.85223650  0.49760937  0.18965526    -0.04300
Br1341     Br  0.80354168  0.56687231  0.12505008     0.00200
Br1342     Br  0.91093682  0.51406752  0.14318796    -0.03600
Br1343     Br  0.86864396  0.48823701  0.08666249    -0.04500
Br1344     Br  0.85147921  0.43747015  0.19507242    -0.00500
C1345       C  0.93793449  0.64119966  0.14287470     0.00900
C1346       C  0.95117567  0.62845838  0.16094526     0.03800
C1347       C  0.97653517  0.62572214  0.15890894    -0.12300
C1348       C  0.98907190  0.63612290  0.13931575     0.23100
C1349       C  0.97598991  0.64758994  0.12066726    -0.12900
C1350       C  0.95057989  0.64995786  0.12222548     0.04500
C1351       C  0.01589229  0.63910502  0.14066794     0.26900
C1352       C  0.02526841  0.65973506  0.15241546    -0.13600
C1353       C  0.05045299  0.66291922  0.15467917     0.05000
C1354       C  0.06662453  0.64593143  0.14445305    -0.09500
C1355       C  0.05724507  0.62569390  0.13188355     0.05800
C1356       C  0.03192654  0.62202334  0.13040613    -0.13900
Br1357     Br  0.99339730  0.66124320  0.09356259    -0.06000
Br1358     Br  0.93558517  0.61655556  0.18993607    -0.00300
Br1359     Br  0.06243916  0.69001676  0.17304121     0.00100
Br1360     Br  0.01919657  0.59371159  0.11440955    -0.04300
Br1361     Br  0.93371448  0.66514206  0.09553607     0.00200
Br1362     Br  0.99464712  0.60889421  0.18371568    -0.03600
Br1363     Br  0.00329543  0.68374258  0.16544853    -0.04500
Br1364     Br  0.07910549  0.60395040  0.11536407    -0.00500
C1365       C  0.79489070  0.62710583  0.19354907     0.00900
C1366       C  0.79894265  0.61469027  0.21561842     0.03800
C1367       C  0.78076867  0.61403858  0.23345658    -0.12300
C1368       C  0.75807588  0.62479977  0.22900422     0.23100
C1369       C  0.75319800  0.63537036  0.20630790    -0.12900
C1370       C  0.77163562  0.63695922  0.18873679     0.04500
C1371       C  0.74017553  0.62682024  0.24894724     0.26900
C1372       C  0.72272961  0.60858766  0.25264098    -0.13600
C1373       C  0.70654449  0.61028361  0.27228121     0.05000
C1374       C  0.70722950  0.63065085  0.28778218    -0.09500
C1375       C  0.72488437  0.64877642  0.28417328     0.05800
C1376       C  0.74125303  0.64686934  0.26474932    -0.13900
Br1377     Br  0.72128618  0.64824386  0.19975372    -0.06000
Br1378     Br  0.82898004  0.59758879  0.22127949    -0.00300
Br1379     Br  0.68461344  0.58387406  0.27896513     0.00100
Br1380     Br  0.76503483  0.67194898  0.25938442    -0.04300
Br1381     Br  0.76500040  0.65430571  0.15909103     0.00200
Br1382     Br  0.78707407  0.59905889  0.26445086    -0.03600
Br1383     Br  0.72087268  0.58154548  0.23053636    -0.04500
Br1384     Br  0.72626904  0.67671265  0.30522754    -0.00500
C1385       C  0.80069024  0.70778032  0.12095405     0.00900
C1386       C  0.78055051  0.70524904  0.10521757     0.03800
C1387       C  0.76272668  0.72355855  0.10408445    -0.12300
C1388       C  0.76452641  0.74408775  0.11916059     0.23100
C1389       C  0.78467582  0.74685365  0.13456147    -0.12900
C1390       C  0.80295034  0.72910198  0.13507884     0.04500
C1391       C  0.74496458  0.76257823  0.11959127     0.26900
C1392       C  0.74606027  0.78285475  0.10418729    -0.13600
C1393       C  0.72819598  0.80106402  0.10558567     0.05000
C1394       C  0.70952299  0.79950767  0.12314526    -0.09500
C1395       C  0.70916111  0.77947497  0.13921120     0.05800
C1396       C  0.72633216  0.76076608  0.13685972    -0.13900
Br1397     Br  0.78675617  0.77488305  0.15553296    -0.06000
Br1398     Br  0.77773184  0.67724355  0.08441386    -0.00300
Br1399     Br  0.72945560  0.82766496  0.08286846     0.00100
Br1400     Br  0.72479213  0.73264824  0.15766052    -0.04300
Br1401     Br  0.83046214  0.73429322  0.15594551     0.00200
Br1402     Br  0.73574561  0.72074918  0.08194027    -0.03600
Br1403     Br  0.77248349  0.78573642  0.08148215    -0.04500
Br1404     Br  0.68698344  0.77842047  0.16623576    -0.00500
C1405       C  0.06688684  0.85808126  0.35525334     0.00900
C1406       C  0.05507819  0.88036515  0.35057830     0.03800
C1407       C  0.02952380  0.88174101  0.35075342    -0.12300
C1408       C  0.01561173  0.86105368  0.35614793     0.23100
C1409       C  0.02726959  0.83932078  0.36252290    -0.12900
C1410       C  0.05275030  0.83782431  0.36238561     0.04500
C1411       C  0.98874794  0.86145354  0.35370685     0.26900
C1412       C  0.97388017  0.86519458  0.37417161    -0.13600
C1413       C  0.94845188  0.86381912  0.37190106     0.05000
C1414       C  0.93786949  0.85873014  0.34916970    -0.09500
C1415       C  0.95273410  0.85432757  0.32890461     0.05800
C1416       C  0.97809488  0.85577302  0.33114038    -0.13900
Br1417     Br  0.00794483  0.81120460  0.37039320    -0.06000
Br1418     Br  0.07375537  0.90949129  0.34563698    -0.00300
Br1419     Br  0.92808712  0.86824420  0.39997323     0.00100
Br1420     Br  0.99842487  0.84849051  0.30364108    -0.04300
Br1421     Br  0.06752318  0.80744512  0.37144102     0.00200
Br1422     Br  0.01337762  0.91178162  0.34306339    -0.03600
Br1423     Br  0.98847263  0.87092281  0.40546913    -0.04500
Br1424     Br  0.93835993  0.84423365  0.29858094    -0.00500
C1425       C  0.85844179  0.93941934  0.35457337     0.00900
C1426       C  0.83771276  0.95435374  0.35614364     0.03800
C1427       C  0.84023015  0.97968563  0.35764803    -0.12300
C1428       C  0.86345038  0.99030128  0.35807163     0.23100
C1429       C  0.88420456  0.97537880  0.35753676    -0.12900
C1430       C  0.88171739  0.94999901  0.35557720     0.04500
C1431       C  0.86567740  0.01716944  0.35682678     0.26900
C1432       C  0.86708085  0.02850062  0.33397974    -0.13600
C1433       C  0.86551049  0.05388826  0.33212677     0.05000
C1434       C  0.86354134  0.06824758  0.35322401    -0.09500
C1435       C  0.86318965  0.05695036  0.37620547     0.05800
C1436       C  0.86385015  0.03145791  0.37796768    -0.13900
Br1437     Br  0.91596601  0.98988098  0.35896787    -0.06000
Br1438     Br  0.80568159  0.94036927  0.35464254    -0.00300
Br1439     Br  0.86337379  0.06866653  0.30048232     0.00100
Br1440     Br  0.86102064  0.01597442  0.40918263    -0.04300
Br1441     Br  0.91018131  0.92971206  0.35462087     0.00200
Br1442     Br  0.81181216  0.00012989  0.35792402    -0.03600
Br1443     Br  0.86979155  0.00895871  0.30505916    -0.04500
Br1444     Br  0.86188124  0.07635915  0.40531399    -0.00500
C1445       C  0.79647932  0.80170223  0.36582533     0.00900
C1446       C  0.79834144  0.78005767  0.35217359     0.03800
C1447       C  0.77900817  0.76350180  0.35166181    -0.12300
C1448       C  0.75806085  0.76788849  0.36545297     0.23100
C1449       C  0.75607914  0.78929638  0.37920901    -0.12900
C1450       C  0.77520371  0.80621327  0.37938285     0.04500
C1451       C  0.73862112  0.74934897  0.36592956     0.26900
C1452       C  0.72031700  0.74951978  0.34813250    -0.13600
C1453       C  0.70350022  0.73040607  0.34693595     0.05000
C1454       C  0.70454960  0.71123923  0.36391582    -0.09500
C1455       C  0.72270549  0.71137439  0.38201779     0.05800
C1456       C  0.73981172  0.73028577  0.38284953    -0.13900
Br1457     Br  0.72700398  0.79539791  0.39759339    -0.06000
Br1458     Br  0.82681167  0.77280862  0.33339618    -0.00300
Br1459     Br  0.68044771  0.72973044  0.32064528     0.00100
Br1460     Br  0.76550362  0.72988797  0.40667196    -0.04300
Br1461     Br  0.77260236  0.83493289  0.39926379     0.00200
Br1462     Br  0.78076690  0.73487585  0.33149244    -0.03600
Br1463     Br  0.71899666  0.77558234  0.32481532    -0.04500
Br1464     Br  0.72396970  0.68605972  0.40609652    -0.00500
C1465       C  0.71181124  0.88019317  0.19680888     0.00900
C1466       C  0.71054567  0.89939612  0.21379270     0.03800
C1467       C  0.72755374  0.90086223  0.23283079    -0.12300
C1468       C  0.74563589  0.88303249  0.23522129     0.23100
C1469       C  0.74732210  0.86421880  0.21808291    -0.12900
C1470       C  0.73093230  0.86310914  0.19854992     0.04500
C1471       C  0.76297471  0.88371873  0.25579711     0.26900
C1472       C  0.78535694  0.89566818  0.25329600    -0.13600
C1473       C  0.80282359  0.89423173  0.27188770     0.05000
C1474       C  0.79836115  0.87998818  0.29267194    -0.09500
C1475       C  0.77551492  0.86864863  0.29542065     0.05800
C1476       C  0.75779866  0.87081486  0.27714836    -0.13900
Br1477     Br  0.77179146  0.83943683  0.22202270    -0.06000
Br1478     Br  0.68645269  0.92459796  0.21039825    -0.00300
Br1479     Br  0.83236519  0.91274885  0.26926925     0.00100
Br1480     Br  0.72657671  0.85538402  0.28080331    -0.04300
Br1481     Br  0.73487938  0.83758611  0.17483601     0.00200
Br1482     Br  0.72613681  0.92716576  0.25585124    -0.03600
Br1483     Br  0.79221039  0.91337010  0.22395701    -0.04500
Br1484     Br  0.76855712  0.84868198  0.32318356    -0.00500
C1485       C  0.87410267  0.79948102  0.29014680     0.00900
C1486       C  0.86532744  0.80384827  0.26631788     0.03800
C1487       C  0.86662125  0.78555151  0.24838206    -0.12300
C1488       C  0.87578482  0.76240847  0.25412853     0.23100
C1489       C  0.88480745  0.75805092  0.27764351    -0.12900
C1490       C  0.88437211  0.77649745  0.29542298     0.04500
C1491       C  0.87478503  0.74227116  0.23588511     0.26900
C1492       C  0.85312201  0.72901675  0.23262878    -0.13600
C1493       C  0.85203323  0.70991933  0.21557274     0.05000
C1494       C  0.87261142  0.70393392  0.20161660    -0.09500
C1495       C  0.89438227  0.71675799  0.20525230     0.05800
C1496       C  0.89545792  0.73595171  0.22218215    -0.13900
Br1497     Br  0.89743806  0.72640157  0.28552024    -0.06000
Br1498     Br  0.84970779  0.83408206  0.25817190    -0.00300
Br1499     Br  0.82229376  0.69203777  0.21123432     0.00100
Br1500     Br  0.92515813  0.75384262  0.22634752    -0.04300
Br1501     Br  0.89881096  0.77005914  0.32672231     0.00200
Br1502     Br  0.85554777  0.79196446  0.21576076    -0.03600
Br1503     Br  0.82489315  0.73725474  0.25157432    -0.04500
Br1504     Br  0.92278779  0.70761546  0.18704539    -0.00500
C1505       C  0.14721683  0.35719393  0.06204437     0.00900
C1506       C  0.15321757  0.37889693  0.04980694     0.03800
C1507       C  0.15180852  0.38005556  0.02435319    -0.12300
C1508       C  0.14512692  0.35945117  0.01092190     0.23100
C1509       C  0.13831899  0.33807093  0.02297962    -0.12900
C1510       C  0.13966996  0.33677597  0.04843632     0.04500
C1511       C  0.14791361  0.35948299  0.98418542     0.26900
C1512       C  0.12805265  0.36469688  0.96897290    -0.13600
C1513       C  0.13086553  0.36395199  0.94361809     0.05000
C1514       C  0.15373488  0.35885099  0.93348551    -0.09500
C1515       C  0.17374863  0.35425465  0.94871480     0.05800
C1516       C  0.17075853  0.35422555  0.97403064    -0.13900
Br1517     Br  0.12773379  0.31035701  0.00439738    -0.06000
Br1518     Br  0.16401212  0.40709130  0.06740453    -0.00300
Br1519     Br  0.10340013  0.36971788  0.92270708     0.00100
Br1520     Br  0.19776085  0.34627883  0.99493473    -0.04300
Br1521     Br  0.13392186  0.30600120  0.06406740     0.00200
Br1522     Br  0.15927313  0.40978608  0.00753373    -0.03600
Br1523     Br  0.09708307  0.37270327  0.98297793    -0.04500
Br1524     Br  0.20502921  0.34694595  0.93489091    -0.00500
C1525       C  0.35880291  0.14186696  0.92757489     0.00900
C1526       C  0.38149497  0.14647103  0.93869778     0.03800
C1527       C  0.38372032  0.14645000  0.96418217    -0.12300
C1528       C  0.36345828  0.14136773  0.97877795     0.23100
C1529       C  0.34118362  0.13530399  0.96774514    -0.12900
C1530       C  0.33874309  0.13582418  0.94226830     0.04500
C1531       C  0.36470473  0.14484859  0.00557893     0.26900
C1532       C  0.37069111  0.12546259  0.02112664    -0.13600
C1533       C  0.36922132  0.12844190  0.04650731     0.05000
C1534       C  0.36187578  0.15082453  0.05641657    -0.09500
C1535       C  0.35691654  0.17048687  0.04089299     0.05800
C1536       C  0.35857579  0.16756747  0.01556134    -0.13900
Br1537     Br  0.31370557  0.12736926  0.98782396    -0.06000
Br1538     Br  0.40981974  0.15259652  0.91922532    -0.00300
Br1539     Br  0.37712101  0.10188074  0.06782461     0.00100
Br1540     Br  0.35217220  0.19459767  0.99430142    -0.04300
Br1541     Br  0.30726986  0.13051163  0.92786557     0.00200
Br1542     Br  0.41428391  0.15437498  0.97930604    -0.03600
Br1543     Br  0.38072710  0.09487407  0.00758879    -0.04500
Br1544     Br  0.34643900  0.20103033  0.05427845    -0.00500
C1545       C  0.29743613  0.20120304  0.86599473     0.00900
C1546       C  0.29873119  0.21850018  0.88478397     0.03800
C1547       C  0.28062821  0.23633654  0.88702307    -0.12300
C1548       C  0.26129444  0.23716553  0.87030949     0.23100
C1549       C  0.25956495  0.21947668  0.85194155    -0.12900
C1550       C  0.27739873  0.20129798  0.85000763     0.04500
C1551       C  0.24376413  0.25760748  0.87100710     0.26900
C1552       C  0.22208117  0.25573699  0.88429311    -0.13600
C1553       C  0.20527839  0.27498420  0.88420685     0.05000
C1554       C  0.21019395  0.29637059  0.87098287    -0.09500
C1555       C  0.23256672  0.29856547  0.85864535     0.05800
C1556       C  0.24901377  0.27905935  0.85830364    -0.13900
Br1557     Br  0.23326836  0.22094469  0.82879671    -0.06000
Br1558     Br  0.32510454  0.21739822  0.90781267    -0.00300
Br1559     Br  0.17602493  0.27234018  0.90320924     0.00100
Br1560     Br  0.27861969  0.28124341  0.83974397    -0.04300
Br1561     Br  0.27464851  0.17722525  0.82485419     0.00200
Br1562     Br  0.28249994  0.26009518  0.91261818    -0.03600
Br1563     Br  0.21548456  0.22666286  0.90248788    -0.04500
Br1564     Br  0.24090203  0.32774118  0.84141907    -0.00500
C1565       C  0.35557239  0.36367538  0.56001444     0.00900
C1566       C  0.37883773  0.36442770  0.54937299     0.03800
C1567       C  0.38132064  0.36492076  0.52391851    -0.12300
C1568       C  0.36059316  0.36494601  0.50893286     0.23100
C1569       C  0.33736678  0.36555274  0.51956425    -0.12900
C1570       C  0.33482918  0.36456128  0.54498978     0.04500
C1571       C  0.36300375  0.36190644  0.48215062     0.26900
C1572       C  0.36612313  0.38211431  0.46684512    -0.13600
C1573       C  0.36676186  0.37901207  0.44142206     0.05000
C1574       C  0.36405175  0.35570155  0.43118325    -0.09500
C1575       C  0.36128862  0.33548744  0.44656269     0.05800
C1576       C  0.36110442  0.33855542  0.47192831    -0.13900
Br1577     Br  0.30899937  0.36684053  0.49906116    -0.06000
Br1578     Br  0.40740109  0.36481774  0.56964108    -0.00300
Br1579     Br  0.37144805  0.40667207  0.42057762     0.00100
Br1580     Br  0.35755825  0.31078089  0.49286309    -0.04300
Br1581     Br  0.30288412  0.36200394  0.55898338     0.00200
Br1582     Br  0.41310085  0.36473120  0.50941818    -0.03600
Br1583     Br  0.36889204  0.41403657  0.48079949    -0.10900
Br1584     Br  0.35552776  0.30378569  0.43292139    -0.00500
C1585       C  0.37756509  0.20956283  0.79100528     0.00900
C1586       C  0.38938104  0.20528782  0.76861988     0.03800
C1587       C  0.38916123  0.22311123  0.75042608    -0.12300
C1588       C  0.37796054  0.24558415  0.75472180     0.23100
C1589       C  0.36724458  0.25044090  0.77732988    -0.12900
C1590       C  0.36689264  0.23249333  0.79543204     0.04500
C1591       C  0.37709845  0.26397701  0.73521851     0.26900
C1592       C  0.39524817  0.28182720  0.73372073    -0.13600
C1593       C  0.39437686  0.29926115  0.71515536     0.05000
C1594       C  0.37571710  0.29842401  0.69762883    -0.09500
C1595       C  0.35764237  0.28040308  0.69909513     0.05800
C1596       C  0.35809009  0.26351346  0.71814777    -0.13900
Br1597     Br  0.35242101  0.28163083  0.78305382    -0.06000
Br1598     Br  0.40708937  0.17559688  0.76297192    -0.00300
Br1599     Br  0.41889955  0.32414686  0.71363285     0.00100
Br1600     Br  0.33212137  0.24032800  0.72162347    -0.04300
Br1601     Br  0.35049901  0.23945414  0.82553924     0.00200
Br1602     Br  0.40381908  0.21674164  0.71927672    -0.03600
Br1603     Br  0.42101142  0.28248613  0.75743857    -0.04500
Br1604     Br  0.33136382  0.27959421  0.67599958    -0.00500
C1605       C  0.21207174  0.37222338  0.79465237     0.00900
C1606       C  0.21192242  0.35702352  0.77406282     0.03800
C1607       C  0.23054308  0.35878408  0.75681132    -0.12300
C1608       C  0.24943448  0.37562500  0.76008480     0.23100
C1609       C  0.24961263  0.39089565  0.78055402    -0.12900
C1610       C  0.23086122  0.38932390  0.79775394     0.04500
C1611       C  0.26888013  0.37714889  0.74166296     0.26900
C1612       C  0.28919762  0.36187704  0.74342475    -0.13600
C1613       C  0.30580216  0.36054283  0.72415477     0.05000
C1614       C  0.30271535  0.37527017  0.70336244    -0.09500
C1615       C  0.28278309  0.39130338  0.70216294     0.05800
C1616       C  0.26584714  0.39209312  0.72121856    -0.13900
Br1617     Br  0.27555069  0.41392577  0.78487288    -0.06000
Br1618     Br  0.18689446  0.33301249  0.76976093    -0.00300
Br1619     Br  0.33124739  0.33672670  0.72575110     0.00100
Br1620     Br  0.23810430  0.41331088  0.71938548    -0.04300
Br1621     Br  0.23029543  0.41147045  0.82489119     0.00200
Br1622     Br  0.23038983  0.33801461  0.72858035    -0.03600
Br1623     Br  0.29384844  0.34237991  0.77217344    -0.04500
Br1624     Br  0.27872364  0.41255485  0.67470510    -0.00500
C1625       C  0.14949430  0.14892639  0.55966061     0.00900
C1626       C  0.17033979  0.14408866  0.54559097     0.03800
C1627       C  0.16911613  0.14507288  0.52008908    -0.12300
C1628       C  0.14713067  0.15085336  0.50840501     0.23100
C1629       C  0.12616945  0.15513789  0.52233458    -0.12900
C1630       C  0.12725689  0.15386866  0.54786735     0.04500
C1631       C  0.14630367  0.15243786  0.48144847     0.26900
C1632       C  0.15334895  0.17398499  0.46970323    -0.13600
C1633       C  0.15407583  0.17500582  0.44419147     0.05000
C1634       C  0.14857610  0.15424862  0.43030423    -0.09500
C1635       C  0.14129527  0.13278855  0.44199863     0.05800
C1636       C  0.13984790  0.13198087  0.46751701    -0.13900
Br1637     Br  0.09613210  0.16332681  0.50633270    -0.06000
Br1638     Br  0.20106474  0.13732370  0.56098935    -0.00300
Br1639     Br  0.16335343  0.20468866  0.42825151     0.00100
Br1640     Br  0.12950084  0.10275500  0.48356558    -0.04300
Br1641     Br  0.09795034  0.15769059  0.56654457     0.00200
Br1642     Br  0.19780616  0.13928137  0.50094327    -0.03600
Br1643     Br  0.16290363  0.20180137  0.48866567    -0.04500
Br1644     Br  0.13322931  0.10459834  0.42299727    -0.00500
C1645       C  0.13187265  0.29491158  0.79603083     0.00900
C1646       C  0.11683038  0.29837645  0.77555624     0.03800
C1647       C  0.11475543  0.28007481  0.75781574    -0.12300
C1648       C  0.12773162  0.25821290  0.76033516     0.23100
C1649       C  0.14192266  0.25427256  0.78122527    -0.12900
C1650       C  0.14405731  0.27253451  0.79898164     0.04500
C1651       C  0.12828734  0.24038202  0.74003987     0.26900
C1652       C  0.11392703  0.21927656  0.74065350    -0.13600
C1653       C  0.11523488  0.20226768  0.72157472     0.05000
C1654       C  0.13052993  0.20653919  0.70147377    -0.09500
C1655       C  0.14459089  0.22791588  0.70079114     0.05800
C1656       C  0.14379814  0.24448722  0.72020096    -0.13900
Br1657     Br  0.15912994  0.22401177  0.78502280    -0.06000
Br1658     Br  0.09852075  0.32797364  0.77200433    -0.00300
Br1659     Br  0.09550597  0.17340759  0.72278281     0.00100
Br1660     Br  0.16484686  0.27246383  0.72025605    -0.04300
Br1661     Br  0.16518169  0.26710262  0.82630661     0.00200
Br1662     Br  0.09438317  0.28493698  0.72975027    -0.03600
Br1663     Br  0.09273362  0.21360666  0.76785104    -0.04500
Br1664     Br  0.16602727  0.23427434  0.67400973    -0.00500
C1665       C  0.20717388  0.12936838  0.69861548     0.00900
C1666       C  0.20328997  0.13719540  0.72282954     0.03800
C1667       C  0.22227911  0.13612034  0.73999208    -0.12300
C1668       C  0.24534382  0.12760614  0.73319902     0.23100
C1669       C  0.24919901  0.11928701  0.70939781    -0.12900
C1670       C  0.23023262  0.11990700  0.69222884     0.04500
C1671       C  0.26574756  0.12804745  0.75094952     0.26900
C1672       C  0.28109892  0.14842375  0.75224255    -0.13600
C1673       C  0.29994335  0.14926281  0.76952250     0.05000
C1674       C  0.30347683  0.12974691  0.78567693    -0.09500
C1675       C  0.28861809  0.10907352  0.78386112     0.05800
C1676       C  0.26970650  0.10827374  0.76663763    -0.13900
Br1677     Br  0.28078683  0.10722505  0.70039554    -0.06000
Br1678     Br  0.17269210  0.15095223  0.73275000    -0.00300
Br1679     Br  0.32024642  0.17761697  0.77158164     0.00100
Br1680     Br  0.24890727  0.08029192  0.76468072    -0.04300
Br1681     Br  0.23612391  0.10678066  0.66025312     0.00200
Br1682     Br  0.21703562  0.14679655  0.77294704    -0.03600
Br1683     Br  0.27586565  0.17540672  0.73058763    -0.04500
Br1684     Br  0.29471561  0.08160892  0.80458767    -0.00500
C1685       C  0.29614018  0.30181689  0.62263992     0.00900
C1686       C  0.27525572  0.30326935  0.63746460     0.03800
C1687       C  0.25728811  0.28511132  0.63626520    -0.12300
C1688       C  0.26021492  0.26503351  0.62070942     0.23100
C1689       C  0.28075095  0.26375972  0.60558288    -0.12900
C1690       C  0.29841363  0.28224717  0.60623913     0.04500
C1691       C  0.24229737  0.24474837  0.62122727     0.26900
C1692       C  0.24302361  0.22773059  0.64030811    -0.13600
C1693       C  0.22547195  0.20925214  0.64167595     0.05000
C1694       C  0.20755021  0.20712947  0.62354745    -0.09500
C1695       C  0.20715221  0.22369094  0.60411654     0.05800
C1696       C  0.22427140  0.24265143  0.60310894    -0.13900
Br1697     Br  0.28495181  0.23621678  0.58443368    -0.06000
Br1698     Br  0.27163765  0.32912623  0.66072257    -0.00300
Br1699     Br  0.22522181  0.18766901  0.66912799     0.00100
Br1700     Br  0.22265345  0.26611432  0.57727654    -0.04300
Br1701     Br  0.32518420  0.28123461  0.58378676     0.00200
Br1702     Br  0.22873761  0.28732535  0.65640694    -0.03600
Br1703     Br  0.26800132  0.22995901  0.66478822    -0.04500
Br1704     Br  0.18313476  0.22016528  0.57883503    -0.00500
C1705       C  0.36182517  0.43946583  0.64391403     0.00900
C1706       C  0.36865179  0.44993169  0.62168037     0.03800
C1707       C  0.37076816  0.47528456  0.61964247    -0.12300
C1708       C  0.36640842  0.49023074  0.63994092     0.23100
C1709       C  0.36061361  0.47962644  0.66246903    -0.12900
C1710       C  0.35788267  0.45432840  0.66433372     0.04500
C1711       C  0.36616536  0.51707931  0.63723486     0.26900
C1712       C  0.38671241  0.53094570  0.64325957    -0.13600
C1713       C  0.38572476  0.55644944  0.64214119     0.05000
C1714       C  0.36391872  0.56835414  0.63552005    -0.09500
C1715       C  0.34417527  0.55420475  0.62707040     0.05800
C1716       C  0.34518542  0.52871955  0.62846213    -0.13900
Br1717     Br  0.35617263  0.49982352  0.69070079    -0.06000
Br1718     Br  0.37518597  0.42941544  0.59412605    -0.00300
Br1719     Br  0.41501821  0.57477043  0.64771791     0.00100
Br1720     Br  0.31744276  0.50949522  0.61908984    -0.04300
Br1721     Br  0.34724161  0.44009199  0.69446330     0.00200
Br1722     Br  0.37926677  0.48971514  0.58899978    -0.03600
Br1723     Br  0.41610768  0.51482803  0.65332720    -0.04500
Br1724     Br  0.31550740  0.56902133  0.61345690    -0.00500
C1725       C  0.35827025  0.64457195  0.43165723     0.00900
C1726       C  0.33894376  0.63605480  0.44626059     0.03800
C1727       C  0.34111472  0.63635358  0.47170956    -0.12300
C1728       C  0.36278691  0.64420534  0.48268450     0.23100
C1729       C  0.38267609  0.65080618  0.46821614    -0.12900
C1730       C  0.38048864  0.65092722  0.44278707     0.04500
C1731       C  0.36413586  0.64666075  0.50944520     0.26900
C1732       C  0.35857045  0.66908372  0.52031108    -0.13600
C1733       C  0.35858723  0.67131826  0.54570749     0.05000
C1734       C  0.36351284  0.65098033  0.56032698    -0.09500
C1735       C  0.36931609  0.62860399  0.54949700     0.05800
C1736       C  0.37001308  0.62654403  0.52404137    -0.13900
Br1737     Br  0.41277127  0.66014804  0.48343828    -0.06000
Br1738     Br  0.30907952  0.62443676  0.43206825    -0.00300
Br1739     Br  0.35121085  0.70213048  0.56046391     0.00100
Br1740     Br  0.37896134  0.59629063  0.50901666    -0.04300
Br1741     Br  0.40855631  0.65838272  0.42336923     0.00200
Br1742     Br  0.31402337  0.62705529  0.49181830    -0.03600
Br1743     Br  0.35031587  0.69655832  0.50028087    -0.04500
Br1744     Br  0.37619496  0.60085359  0.56957550    -0.00500
C1745       C  0.15693490  0.56568551  0.85366697     0.00900
C1746       C  0.13487045  0.55428386  0.84701478     0.03800
C1747       C  0.13300763  0.52883269  0.84677230    -0.12300
C1748       C  0.15289881  0.51443931  0.85362476     0.23100
C1749       C  0.17450913  0.52557496  0.86144105    -0.12900
C1750       C  0.17654544  0.55105955  0.86169675     0.04500
C1751       C  0.15149357  0.48757121  0.85160059     0.26900
C1752       C  0.14477215  0.47337255  0.87174892    -0.13600
C1753       C  0.14469182  0.44789123  0.86997282     0.05000
C1754       C  0.15142439  0.43653437  0.84811359    -0.09500
C1755       C  0.15738057  0.45074336  0.82773860     0.05800
C1756       C  0.15730514  0.47619972  0.82945510    -0.13900
Br1757     Br  0.20170806  0.50559702  0.87083143    -0.06000
Br1758     Br  0.10644107  0.57316514  0.83938437    -0.00300
Br1759     Br  0.13496284  0.42839625  0.89725814     0.00100
Br1760     Br  0.16544034  0.49566983  0.80157548    -0.04300
Br1761     Br  0.20679264  0.56523049  0.87226199     0.00200
Br1762     Br  0.10334986  0.51341517  0.83636137    -0.03600
Br1763     Br  0.13582916  0.48892202  0.90174488    -0.04500
Br1764     Br  0.16659554  0.43534008  0.79771294    -0.00500
C1765       C  0.15779813  0.64714651  0.93318918     0.00900
C1766       C  0.17625001  0.65639425  0.94848671     0.03800
C1767       C  0.17324020  0.65626922  0.97390589    -0.12300
C1768       C  0.15168153  0.64729889  0.98423543     0.23100
C1769       C  0.13365644  0.63733420  0.96906298    -0.12900
C1770       C  0.13706215  0.63658059  0.94372326     0.04500
C1771       C  0.14839402  0.64780413  0.01110347     0.26900
C1772       C  0.15447454  0.62737295  0.02513316    -0.13600
C1773       C  0.15315176  0.62837870  0.05064859     0.05000
C1774       C  0.14581302  0.64994719  0.06244900    -0.09500
C1775       C  0.13871932  0.67010571  0.04824566     0.05800
C1776       C  0.14014890  0.66901995  0.02270931    -0.13900
Br1777     Br  0.10416688  0.62498288  0.98307615    -0.06000
Br1778     Br  0.20561061  0.66962644  0.93492070    -0.00300
Br1779     Br  0.16086794  0.59976250  0.06919176     0.00100
Br1780     Br  0.13175061  0.69697677  0.00346854    -0.04300
Br1781     Br  0.11462278  0.61880424  0.92363431     0.00200
Br1782     Br  0.19858697  0.66850083  0.99481538    -0.03600
Br1783     Br  0.16537000  0.59817480  0.00924210    -0.04500
Br1784     Br  0.12854837  0.69996900  0.06343895    -0.00500
C1785       C  0.21256767  0.62935475  0.78952793     0.00900
C1786       C  0.21323754  0.64631899  0.77016510     0.03800
C1787       C  0.23185339  0.64521061  0.75265350    -0.12300
C1788       C  0.24991746  0.62724929  0.75411101     0.23100
C1789       C  0.24878270  0.60973305  0.77259606    -0.12900
C1790       C  0.23015703  0.61061820  0.79008034     0.04500
C1791       C  0.27061646  0.62737451  0.73671076     0.26900
C1792       C  0.27020655  0.61259415  0.71590831    -0.13600
C1793       C  0.28975148  0.61292824  0.69945767     0.05000
C1794       C  0.30933873  0.62928725  0.70278153    -0.09500
C1795       C  0.31014153  0.64328563  0.72445719     0.05800
C1796       C  0.29086669  0.64221726  0.74122936    -0.13900
Br1797     Br  0.27307774  0.58456270  0.77392597    -0.06000
Br1798     Br  0.18951430  0.67194926  0.76756135    -0.00300
Br1799     Br  0.29031076  0.58908318  0.67377104     0.00100
Br1800     Br  0.29179831  0.66144268  0.77054815    -0.04300
Br1801     Br  0.22825209  0.58500093  0.81371560     0.00200
Br1802     Br  0.23307903  0.66859291  0.72662856    -0.03600
Br1803     Br  0.24247537  0.59215905  0.70979159    -0.04500
Br1804     Br  0.33716981  0.66421820  0.73200972    -0.00500
C1805       C  0.36807722  0.06729510  0.84126623     0.00900
C1806       C  0.36601095  0.05319370  0.82005786     0.03800
C1807       C  0.36588871  0.02778732  0.82168282    -0.12300
C1808       C  0.36962888  0.01641871  0.84429254     0.23100
C1809       C  0.37378662  0.03061931  0.86518420    -0.12900
C1810       C  0.37247935  0.05603912  0.86375582     0.04500
C1811       C  0.36814293  0.98961064  0.84615782     0.26900
C1812       C  0.34715739  0.97870313  0.85567474    -0.13600
C1813       C  0.34522099  0.95327712  0.85672571     0.05000
C1814       C  0.36377378  0.93848446  0.84682191    -0.09500
C1815       C  0.38476997  0.94968311  0.83707898     0.05800
C1816       C  0.38716715  0.97506344  0.83745522    -0.13900
Br1817     Br  0.38066088  0.01516454  0.89580124    -0.06000
Br1818     Br  0.36260251  0.06865376  0.78884133    -0.00300
Br1819     Br  0.31627138  0.93939449  0.87063540     0.00100
Br1820     Br  0.41652483  0.99014684  0.82580876    -0.04300
Br1821     Br  0.37703124  0.07555278  0.89246541     0.00200
Br1822     Br  0.35900121  0.00859715  0.79319429    -0.03600
Br1823     Br  0.32048230  0.99886190  0.86615213    -0.04500
Br1824     Br  0.41075106  0.93084744  0.82307921    -0.00500
C1825       C  0.35944401  0.85278737  0.93033557     0.00900
C1826       C  0.33784135  0.84670893  0.94290464     0.03800
C1827       C  0.33780977  0.84493458  0.96842281    -0.12300
C1828       C  0.35901361  0.84989007  0.98175321     0.23100
C1829       C  0.38047007  0.85612075  0.96942121    -0.12900
C1830       C  0.38073026  0.85750876  0.94385058     0.04500
C1831       C  0.35828706  0.85002793  0.00880085     0.26900
C1832       C  0.35297134  0.87169774  0.02123297    -0.13600
C1833       C  0.35224414  0.87213306  0.04679774     0.05000
C1834       C  0.35678623  0.85078852  0.06018794    -0.09500
C1835       C  0.36130668  0.82887153  0.04761004     0.05800
C1836       C  0.36209576  0.82854108  0.02204039    -0.13900
Br1837     Br  0.40946498  0.86298392  0.98780570    -0.06000
Br1838     Br  0.30800621  0.84025360  0.92562903    -0.00300
Br1839     Br  0.34537056  0.90219806  0.06324177     0.00100
Br1840     Br  0.36739472  0.79845155  0.00499753    -0.04300
Br1841     Br  0.40991795  0.86754634  0.92762774     0.00200
Br1842     Br  0.30870595  0.83551874  0.98542396    -0.03600
Br1843     Br  0.34598463  0.90066257  0.00293407    -0.04500
Br1844     Br  0.36448997  0.79872944  0.06511635    -0.00500
C1845       C  0.38527504  0.79691539  0.79146364     0.00900
C1846       C  0.38568627  0.77190002  0.79788289     0.03800
C1847       C  0.38616541  0.75393493  0.77970421    -0.12300
C1848       C  0.38697161  0.76052837  0.75513780     0.23100
C1849       C  0.38890650  0.78502038  0.74864267    -0.12900
C1850       C  0.38822635  0.80320537  0.76656548     0.04500
C1851       C  0.38555966  0.74175429  0.73591586     0.26900
C1852       C  0.40676290  0.73013959  0.72772666    -0.13600
C1853       C  0.40534770  0.71257113  0.70926885     0.05000
C1854       C  0.38281937  0.70714566  0.69844628    -0.09500
C1855       C  0.36175096  0.71956868  0.70592726     0.05800
C1856       C  0.36304903  0.73641714  0.72502350    -0.13900
Br1857     Br  0.39241487  0.79336035  0.71476035    -0.06000
Br1858     Br  0.38742789  0.76136603  0.83130456    -0.00300
Br1859     Br  0.43450324  0.69725041  0.69765011     0.00100
Br1860     Br  0.33402128  0.75240011  0.73623684    -0.04300
Br1861     Br  0.39156083  0.83635463  0.75568507     0.00200
Br1862     Br  0.38576469  0.71998346  0.78824035    -0.03600
Br1863     Br  0.43778357  0.73909969  0.74122920    -0.04500
Br1864     Br  0.33099928  0.71350829  0.69014061    -0.00500
C1865       C  0.21501867  0.70598667  0.86728282     0.00900
C1866       C  0.23517060  0.70624942  0.85124199     0.03800
C1867       C  0.25187701  0.72544622  0.85207070    -0.12300
C1868       C  0.24797757  0.74515854  0.86770758     0.23100
C1869       C  0.22761307  0.74567715  0.88289035    -0.12900
C1870       C  0.21152950  0.72593090  0.88331143     0.04500
C1871       C  0.26556583  0.76533752  0.86809972     0.26900
C1872       C  0.28630745  0.76372768  0.88279113    -0.13600
C1873       C  0.30432816  0.78168471  0.88156551     0.05000
C1874       C  0.30159766  0.80157814  0.86534950    -0.09500
C1875       C  0.28009445  0.80334312  0.85118544     0.05800
C1876       C  0.26213776  0.78536130  0.85280334    -0.13900
Br1877     Br  0.22168535  0.77393057  0.90276181    -0.06000
Br1878     Br  0.23953748  0.68188355  0.82635084    -0.00300
Br1879     Br  0.33209751  0.77851866  0.90286674     0.00100
Br1880     Br  0.23269733  0.78776303  0.83383883    -0.04300
Br1881     Br  0.18547236  0.72677116  0.90675322     0.00200
Br1882     Br  0.28018985  0.72518869  0.83142866    -0.03600
Br1883     Br  0.28982841  0.73652291  0.90458857    -0.04500
Br1884     Br  0.27491464  0.82923034  0.82811599    -0.00500
C1885       C  0.14578441  0.85383323  0.56231612     0.00900
C1886       C  0.14482204  0.83241974  0.54833426     0.03800
C1887       C  0.14444413  0.83381107  0.52288490    -0.12300
C1888       C  0.14297353  0.85654429  0.51136488     0.23100
C1889       C  0.14130087  0.87782014  0.52544958    -0.12900
C1890       C  0.14312561  0.87650278  0.55088861     0.04500
C1891       C  0.14405349  0.85804774  0.48449137     0.26900
C1892       C  0.16567696  0.86536523  0.47316250    -0.13600
C1893       C  0.16712523  0.86633514  0.44770932     0.05000
C1894       C  0.14745232  0.85816757  0.43327859    -0.09500
C1895       C  0.12563331  0.85109104  0.44480428     0.05800
C1896       C  0.12384711  0.85152123  0.47029305    -0.13900
Br1897     Br  0.13662823  0.90870358  0.50977287    -0.06000
Br1898     Br  0.14385914  0.80106969  0.56378442    -0.00300
Br1899     Br  0.19665459  0.87830995  0.43328083     0.00100
Br1900     Br  0.09380637  0.84285076  0.48601263    -0.04300
Br1901     Br  0.14048872  0.90555847  0.57017086     0.00200
Br1902     Br  0.14706036  0.80459255  0.50376960    -0.03600
Br1903     Br  0.19387890  0.87272870  0.49268967    -0.04500
Br1904     Br  0.09759977  0.84164785  0.42605710    -0.00500
C1905       C  0.14868624  0.93878924  0.63826023     0.00900
C1906       C  0.12616942  0.94988848  0.64362179     0.03800
C1907       C  0.12370666  0.97535258  0.64273197    -0.12300
C1908       C  0.14367640  0.99001123  0.63663650     0.23100
C1909       C  0.16577756  0.97901315  0.63012656    -0.12900
C1910       C  0.16823224  0.95356402  0.63059592     0.04500
C1911       C  0.14213281  0.01696906  0.63869353     0.26900
C1912       C  0.13767137  0.03146997  0.61808019    -0.13600
C1913       C  0.13893704  0.05697255  0.61980221     0.05000
C1914       C  0.14400430  0.06809778  0.64226581    -0.09500
C1915       C  0.14689736  0.05364074  0.66316538     0.05800
C1916       C  0.14634039  0.02818138  0.66131409    -0.13900
Br1917     Br  0.19310624  0.99912729  0.62162338    -0.06000
Br1918     Br  0.09822293  0.93035301  0.65121466    -0.00300
Br1919     Br  0.13330463  0.07682588  0.59158122     0.00100
Br1920     Br  0.15203936  0.00850194  0.68968099    -0.04300
Br1921     Br  0.19901795  0.93948613  0.62179953     0.00200
Br1922     Br  0.09307654  0.99044223  0.65024424    -0.03600
Br1923     Br  0.12977382  0.01629636  0.58758977    -0.04500
Br1924     Br  0.15233889  0.06867115  0.69432280    -0.00500
C1925       C  0.21409289  0.80231916  0.62629406     0.00900
C1926       C  0.22106012  0.79167086  0.60410080     0.03800
C1927       C  0.23953206  0.77396697  0.60350863    -0.12300
C1928       C  0.25190865  0.76752053  0.62496265     0.23100
C1929       C  0.24597247  0.77923130  0.64691029    -0.12900
C1930       C  0.22689992  0.79626263  0.64766467     0.04500
C1931       C  0.27031011  0.74761717  0.62478659     0.26900
C1932       C  0.26310029  0.72374810  0.62979463    -0.13600
C1933       C  0.28021999  0.70470731  0.63022152     0.05000
C1934       C  0.30538443  0.70945853  0.62632653    -0.09500
C1935       C  0.31243982  0.73396435  0.62167603     0.05800
C1936       C  0.29487305  0.75259631  0.62034304    -0.13900
Br1937     Br  0.26411717  0.77180401  0.67592989    -0.06000
Br1938     Br  0.20657694  0.80255826  0.57428022    -0.00300
Br1939     Br  0.26778164  0.67243231  0.63600124     0.00100
Br1940     Br  0.30427336  0.78538734  0.61246785    -0.04300
Br1941     Br  0.21782308  0.81072434  0.67821533     0.00200
Br1942     Br  0.24795190  0.75840348  0.57333756    -0.03600
Br1943     Br  0.22923473  0.71740537  0.63620717    -0.04500
Br1944     Br  0.34602242  0.74361627  0.61836316    -0.00500
C1945       C  0.13582954  0.79750622  0.70193268     0.00900
C1946       C  0.12433345  0.80233250  0.72463662     0.03800
C1947       C  0.12274916  0.78411152  0.74252816    -0.12300
C1948       C  0.13327130  0.76127772  0.73867163     0.23100
C1949       C  0.14422490  0.75599756  0.71636179    -0.12900
C1950       C  0.14512538  0.77358219  0.69785892     0.04500
C1951       C  0.13404716  0.74308322  0.75856645     0.26900
C1952       C  0.15289033  0.74401645  0.77576704    -0.13600
C1953       C  0.15475408  0.72611137  0.79384366     0.05000
C1954       C  0.13740323  0.70718448  0.79516897    -0.09500
C1955       C  0.11817239  0.70668657  0.77807408     0.05800
C1956       C  0.11673572  0.72439625  0.75970140    -0.13900
Br1957     Br  0.15837723  0.72424524  0.71152560    -0.06000
Br1958     Br  0.11026781  0.83345722  0.73251632    -0.00300
Br1959     Br  0.18228403  0.72719554  0.81551116     0.00100
Br1960     Br  0.09124646  0.72301913  0.73568532    -0.04300
Br1961     Br  0.15929401  0.76324113  0.66736999     0.00200
Br1962     Br  0.10598195  0.79007852  0.77271744    -0.03600
Br1963     Br  0.17662571  0.76970924  0.77396384    -0.04500
Br1964     Br  0.09288429  0.68265298  0.78015639    -0.00500
C1965       C  0.21049953  0.87544298  0.70043075     0.00900
C1966       C  0.23340267  0.88604870  0.69459572     0.03800
C1967       C  0.25282655  0.88486371  0.71122428    -0.12300
C1968       C  0.24951867  0.87463268  0.73426257     0.23100
C1969       C  0.22688242  0.86506490  0.74071899    -0.12900
C1970       C  0.20768891  0.86470832  0.72383231     0.04500
C1971       C  0.26984031  0.87400549  0.75197590     0.26900
C1972       C  0.28382652  0.85282917  0.75466786    -0.13600
C1973       C  0.30256489  0.85194667  0.77204875     0.05000
C1974       C  0.30707206  0.87219512  0.78722168    -0.09500
C1975       C  0.29305668  0.89344270  0.78429328     0.05800
C1976       C  0.27463073  0.89435720  0.76661738    -0.13900
Br1977     Br  0.22248307  0.85229507  0.77310192    -0.06000
Br1978     Br  0.23920475  0.90308658  0.66451302    -0.00300
Br1979     Br  0.32092831  0.82234199  0.77571943     0.00100
Br1980     Br  0.25568762  0.92347122  0.76239365    -0.04300
Br1981     Br  0.17846793  0.84801044  0.73383108     0.00200
Br1982     Br  0.28448027  0.89709354  0.70253293    -0.03600
Br1983     Br  0.27674963  0.82484133  0.73478678    -0.04500
Br1984     Br  0.29952939  0.92184190  0.80372007    -0.00500
C1985       C  0.43930876  0.35592172  0.63629483     0.00900
C1986       C  0.45355122  0.33489657  0.63274779     0.03800
C1987       C  0.47908559  0.33650427  0.63241522    -0.12300
C1988       C  0.49067456  0.35900303  0.63593888     0.23100
C1989       C  0.47653024  0.38009777  0.63866649    -0.12900
C1990       C  0.45098843  0.37862252  0.63870085     0.04500
C1991       C  0.51763926  0.36021243  0.63841864     0.26900
C1992       C  0.52863840  0.35428964  0.66076943    -0.13600
C1993       C  0.55405768  0.35493005  0.66323968     0.05000
C1994       C  0.56871332  0.36203831  0.64358176    -0.09500
C1995       C  0.55778062  0.36823203  0.62129017     0.05800
C1996       C  0.53231415  0.36707280  0.61863028    -0.13900
Br1997     Br  0.49231479  0.41096987  0.64317777    -0.06000
Br1998     Br  0.43843470  0.30343279  0.63039923    -0.00300
Br1999     Br  0.56890315  0.34518241  0.69340005     0.00100
Br2000     Br  0.51744088  0.37423056  0.58777898    -0.04300
Br2001     Br  0.43213175  0.40795398  0.64166646     0.00200
Br2002     Br  0.49842498  0.30769769  0.62803149    -0.03600
Br2003     Br  0.50878167  0.34496346  0.68798708    -0.04500
Br2004     Br  0.57778596  0.37830890  0.59450293    -0.00500
C2005       C  0.64911857  0.36158499  0.56276711     0.00900
C2006       C  0.64183664  0.34145538  0.54848982     0.03800
C2007       C  0.64261861  0.34270518  0.52291737    -0.12300
C2008       C  0.64996529  0.36417168  0.51125171     0.23100
C2009       C  0.65624547  0.38455389  0.52528508    -0.12900
C2010       C  0.65581823  0.38335172  0.55084123     0.04500
C2011       C  0.65182454  0.36506822  0.48423779     0.26900
C2012       C  0.67465012  0.36275576  0.47296607    -0.13600
C2013       C  0.67651431  0.36322294  0.44747841     0.05000
C2014       C  0.65547865  0.36514608  0.43301733    -0.09500
C2015       C  0.63263374  0.36745486  0.44425067     0.05800
C2016       C  0.63084166  0.36773306  0.46978066    -0.13900
Br2017     Br  0.66598671  0.41408517  0.50925919    -0.06000
Br2018     Br  0.63178258  0.31148822  0.56338044    -0.00300
Br2019     Br  0.70783749  0.35966173  0.43236365     0.00100
Br2020     Br  0.59958163  0.37111009  0.48504725    -0.04300
Br2021     Br  0.66360388  0.41222850  0.56908364     0.00200
Br2022     Br  0.63475670  0.31454193  0.50362021    -0.03600
Br2023     Br  0.70324329  0.35754671  0.49251380    -0.04500
Br2024     Br  0.60377799  0.37022272  0.42459819    -0.00500
C2025       C  0.44002486  0.15203348  0.85289948     0.00900
C2026       C  0.45371012  0.17338622  0.85615914     0.03800
C2027       C  0.47914621  0.17215890  0.85756069    -0.12300
C2028       C  0.49102941  0.14964168  0.85571406     0.23100
C2029       C  0.47733835  0.12818549  0.85381600    -0.12900
C2030       C  0.45184971  0.12936279  0.85260656     0.04500
C2031       C  0.51792159  0.14891157  0.85454879     0.26900
C2032       C  0.52953873  0.15096747  0.83192279    -0.13600
C2033       C  0.55493906  0.15271193  0.83074505     0.05000
C2034       C  0.56892117  0.15238645  0.85221717    -0.09500
C2035       C  0.55729672  0.14998393  0.87486993     0.05800
C2036       C  0.53183259  0.14801130  0.87598949    -0.13900
Br2037     Br  0.49363615  0.09730444  0.85248915    -0.06000
Br2038     Br  0.43785755  0.20454345  0.85746235    -0.00300
Br2039     Br  0.57038219  0.15729361  0.79968349     0.00100
Br2040     Br  0.51573959  0.14429747  0.90678967    -0.04300
Br2041     Br  0.43310913  0.09989596  0.85164404     0.00200
Br2042     Br  0.49795137  0.20141126  0.86126693    -0.03600
Br2043     Br  0.51046336  0.15206450  0.80254212    -0.04500
Br2044     Br  0.57614205  0.14924117  0.90432506    -0.00500
C2045       C  0.64908982  0.15600923  0.93452845     0.00900
C2046       C  0.65756022  0.17496557  0.94941054     0.03800
C2047       C  0.65757654  0.17230999  0.97477621    -0.12300
C2048       C  0.64875634  0.15082354  0.98535771     0.23100
C2049       C  0.63958170  0.13215213  0.97048140    -0.12900
C2050       C  0.64009097  0.13459934  0.94505179     0.04500
C2051       C  0.64903627  0.14813092  0.01216041     0.26900
C2052       C  0.67012919  0.13996760  0.02405627    -0.13600
C2053       C  0.67131387  0.13990680  0.04959156     0.05000
C2054       C  0.65101296  0.14732037  0.06340494    -0.09500
C2055       C  0.62947590  0.15434585  0.05129846     0.05800
C2056       C  0.62867467  0.15509529  0.02579600    -0.13900
Br2057     Br  0.62624626  0.10338241  0.98506635    -0.06000
Br2058     Br  0.66975748  0.20434167  0.93494460    -0.00300
Br2059     Br  0.70164818  0.13181130  0.06519223     0.00100
Br2060     Br  0.59995616  0.16651328  0.00931159    -0.04300
Br2061     Br  0.62865864  0.10866540  0.92454846     0.00200
Br2062     Br  0.66982326  0.19802526  0.99513897    -0.03600
Br2063     Br  0.69771879  0.12972098  0.00515358    -0.04500
Br2064     Br  0.60068374  0.16260645  0.06934907    -0.00500
C2065       C  0.63239125  0.21298325  0.79426676     0.00900
C2066       C  0.64995043  0.21386185  0.77569567     0.03800
C2067       C  0.65048732  0.23341021  0.75931124    -0.12300
C2068       C  0.63237273  0.25138128  0.76014392     0.23100
C2069       C  0.61405006  0.24993465  0.77790192    -0.12900
C2070       C  0.61423296  0.23097324  0.79509416     0.04500
C2071       C  0.63182535  0.27084184  0.74135708     0.26900
C2072       C  0.64062558  0.29422239  0.74659628    -0.13600
C2073       C  0.64027068  0.31242367  0.72860615     0.05000
C2074       C  0.63255475  0.30688668  0.70463564    -0.09500
C2075       C  0.62305456  0.28357902  0.69976629     0.05800
C2076       C  0.62246927  0.26580685  0.71810133    -0.13900
Br2077     Br  0.58858066  0.27385594  0.77833771    -0.06000
Br2078     Br  0.67305748  0.18812207  0.77203540    -0.00300
Br2079     Br  0.65039424  0.34470544  0.73749678     0.00100
Br2080     Br  0.60855962  0.23439290  0.71157357    -0.04300
Br2081     Br  0.58868515  0.22865552  0.81877885     0.00200
Br2082     Br  0.67641229  0.23592037  0.73594711    -0.03600
Br2083     Br  0.65379146  0.30100879  0.77839148    -0.04500
Br2084     Br  0.60908615  0.27625846  0.66846865    -0.00500
C2085       C  0.94270420  0.36453608  0.84982176     0.00900
C2086       C  0.95332790  0.37004329  0.87246896     0.03800
C2087       C  0.97879479  0.37029122  0.87509325    -0.12300
C2088       C  0.99377360  0.36473191  0.85514490     0.23100
C2089       C  0.98315195  0.35978907  0.83237271    -0.12900
C2090       C  0.95773524  0.36005845  0.82962580     0.04500
C2091       C  0.02065461  0.36321040  0.85795459     0.26900
C2092       C  0.03544246  0.38280800  0.85106371    -0.13600
C2093       C  0.06086593  0.38012091  0.85023967     0.05000
C2094       C  0.07175846  0.35769134  0.85634321    -0.09500
C2095       C  0.05688840  0.33855161  0.86475458     0.05800
C2096       C  0.03148814  0.34138427  0.86556660    -0.13900
Br2097     Br  0.00358650  0.35154307  0.80518167    -0.06000
Br2098     Br  0.93289095  0.37775054  0.89974741    -0.00300
Br2099     Br  0.08053814  0.40760806  0.84132479     0.00100
Br2100     Br  0.01124205  0.31500763  0.87631697    -0.04300
Br2101     Br  0.94354404  0.35331979  0.79832415     0.00200
Br2102     Br  0.99326868  0.37773848  0.90606862    -0.03600
Br2103     Br  0.02060713  0.41326966  0.84243215    -0.04500
Br2104     Br  0.07070779  0.30760379  0.87354060    -0.00500
C2105       C  0.86370468  0.36312883  0.93324325     0.00900
C2106       C  0.86221686  0.38603225  0.94462509     0.03800
C2107       C  0.86316489  0.38781310  0.97018551    -0.12300
C2108       C  0.86600639  0.36676800  0.98439889     0.23100
C2109       C  0.86867175  0.34410668  0.97296547    -0.12900
C2110       C  0.86719313  0.34220842  0.94757003     0.04500
C2111       C  0.86406989  0.36759373  0.01133506     0.26900
C2112       C  0.88505226  0.36867394  0.02596472    -0.13600
C2113       C  0.88336624  0.36503487  0.05125530     0.05000
C2114       C  0.86071798  0.35991656  0.06193279    -0.09500
C2115       C  0.83969027  0.35932028  0.04728107     0.05800
C2116       C  0.84131465  0.36371162  0.02220060    -0.13900
Br2117     Br  0.87362918  0.31543347  0.99240807    -0.06000
Br2118     Br  0.85957595  0.41499378  0.92522816    -0.00300
Br2119     Br  0.91197859  0.36733592  0.07127641     0.00100
Br2120     Br  0.81239073  0.36376573  0.00241106    -0.04300
Br2121     Br  0.86800122  0.31049107  0.93279703     0.00200
Br2122     Br  0.86019450  0.41890143  0.98586215    -0.03600
Br2123     Br  0.91607078  0.37462939  0.01111136    -0.04500
Br2124     Br  0.80884325  0.35028360  0.06109234    -0.00500
C2125       C  0.70664624  0.38113675  0.70301951     0.00900
C2126       C  0.71673799  0.35882249  0.71036597     0.03800
C2127       C  0.73700307  0.35842404  0.72593593    -0.12300
C2128       C  0.74559469  0.38010060  0.73643678     0.23100
C2129       C  0.73486263  0.40237173  0.72977620    -0.12900
C2130       C  0.71592389  0.40292235  0.71253361     0.04500
C2131       C  0.76490833  0.37928182  0.75546289     0.26900
C2132       C  0.75907606  0.37203882  0.77922284    -0.13600
C2133       C  0.77721745  0.37071969  0.79727770     0.05000
C2134       C  0.80135542  0.37808114  0.79214992    -0.09500
C2135       C  0.80688808  0.38595612  0.76822941     0.05800
C2136       C  0.78895409  0.38564943  0.74990043    -0.13900
Br2137     Br  0.74589181  0.43205596  0.74457053    -0.06000
Br2138     Br  0.70267026  0.32868841  0.69931960    -0.00300
Br2139     Br  0.76856469  0.35704929  0.82830068     0.00100
Br2140     Br  0.79732845  0.39325795  0.71677411    -0.04300
Br2141     Br  0.70191668  0.43336225  0.70262327     0.00200
Br2142     Br  0.75368781  0.32833039  0.73211255    -0.03600
Br2143     Br  0.72591646  0.36370398  0.78686291    -0.04500
Br2144     Br  0.83858296  0.39845275  0.76015545    -0.00500
C2145       C  0.80368809  0.30234002  0.87077622     0.00900
C2146       C  0.80324755  0.28318722  0.85374093     0.03800
C2147       C  0.78521474  0.26515178  0.85491953    -0.12300
C2148       C  0.76710253  0.26630277  0.87283720     0.23100
C2149       C  0.76781623  0.28502702  0.89027439    -0.12900
C2150       C  0.78628768  0.30274346  0.88947420     0.04500
C2151       C  0.74707279  0.24810104  0.87275904     0.26900
C2152       C  0.72688703  0.25140044  0.85740595    -0.13600
C2153       C  0.70846256  0.23373718  0.85626775     0.05000
C2154       C  0.71007103  0.21242974  0.87042210    -0.09500
C2155       C  0.73060720  0.20895254  0.88546128     0.05800
C2156       C  0.74888483  0.22682432  0.88675791    -0.13900
Br2157     Br  0.74323483  0.28648490  0.91500474    -0.06000
Br2158     Br  0.82667036  0.28176929  0.82809917    -0.00300
Br2159     Br  0.68222805  0.23807787  0.83353464     0.00100
Br2160     Br  0.77682404  0.22207978  0.90731909    -0.04300
Br2161     Br  0.78856433  0.32694869  0.91460853     0.00200
Br2162     Br  0.78500182  0.23883227  0.83175509    -0.03600
Br2163     Br  0.72502480  0.27988519  0.83717394    -0.04500
Br2164     Br  0.73386974  0.17979000  0.90449028    -0.00500
C2165       C  0.85332684  0.15422706  0.56590414     0.00900
C2166       C  0.84296476  0.17221264  0.55100084     0.03800
C2167       C  0.84353437  0.16974518  0.52560805    -0.12300
C2168       C  0.85401041  0.14900076  0.51495777     0.23100
C2169       C  0.86355533  0.13057407  0.52987171    -0.12900
C2170       C  0.86320289  0.13315553  0.55529312     0.04500
C2171       C  0.85429899  0.14640040  0.48809225     0.26900
C2172       C  0.83308346  0.13944401  0.47566918    -0.13600
C2173       C  0.83231779  0.14004920  0.45012619     0.05000
C2174       C  0.85345955  0.14568971  0.43675725    -0.09500
C2175       C  0.87527072  0.15056096  0.44936862     0.05800
C2176       C  0.87543458  0.15184288  0.47489651    -0.13900
Br2177     Br  0.87646275  0.10151070  0.51538904    -0.06000
Br2178     Br  0.82582779  0.19907126  0.56534731    -0.00300
Br2179     Br  0.80157816  0.13544216  0.43399248     0.00100
Br2180     Br  0.90437599  0.16189629  0.49187246    -0.04300
Br2181     Br  0.87607401  0.10768385  0.57554775     0.00200
Br2182     Br  0.82935726  0.19453630  0.50536366    -0.03600
Br2183     Br  0.80497283  0.12944346  0.49391571    -0.04500
Br2184     Br  0.90527367  0.15443582  0.43187562    -0.00500
C2185       C  0.93896832  0.15130874  0.64262727     0.00900
C2186       C  0.94910562  0.14892342  0.61907410     0.03800
C2187       C  0.97447581  0.14783861  0.61604102    -0.12300
C2188       C  0.98987520  0.14826254  0.63639539     0.23100
C2189       C  0.97995168  0.14926457  0.65983266    -0.12900
C2190       C  0.95475002  0.15136101  0.66304263     0.04500
C2191       C  0.01660711  0.14973587  0.63354799     0.26900
C2192       C  0.03074934  0.12852863  0.63195088    -0.13600
C2193       C  0.05623030  0.13005441  0.63308849     0.05000
C2194       C  0.06755084  0.15271997  0.63635110    -0.09500
C2195       C  0.05342518  0.17402830  0.63648529     0.05800
C2196       C  0.02802141  0.17252132  0.63499031    -0.13900
Br2197     Br  0.00135722  0.14843848  0.68765153    -0.06000
Br2198     Br  0.92875524  0.14645134  0.59061798    -0.00300
Br2199     Br  0.07568551  0.10127840  0.62937298     0.00100
Br2200     Br  0.00859144  0.20161131  0.63602895    -0.04300
Br2201     Br  0.94287501  0.15634824  0.69566826     0.00200
Br2202     Br  0.98841071  0.14630361  0.58398383    -0.03600
Br2203     Br  0.01509384  0.09744082  0.62906832    -0.04500
Br2204     Br  0.06866809  0.20529155  0.64011269    -0.00500
C2205       C  0.71354921  0.31009794  0.62868643     0.00900
C2206       C  0.73576988  0.31423954  0.64132731     0.03800
C2207       C  0.75292023  0.29553932  0.64349561    -0.12300
C2208       C  0.74999775  0.27398257  0.63029362     0.23100
C2209       C  0.72948750  0.27074161  0.61547158    -0.12900
C2210       C  0.71100974  0.28832614  0.61509145     0.04500
C2211       C  0.76849701  0.25460055  0.63203191     0.26900
C2212       C  0.79115819  0.25729378  0.62063795    -0.13600
C2213       C  0.80874488  0.23892313  0.62264172     0.05000
C2214       C  0.80295340  0.21682326  0.63432279    -0.09500
C2215       C  0.78025124  0.21446776  0.64595156     0.05800
C2216       C  0.76339643  0.23352848  0.64534381    -0.13900
Br2217     Br  0.72679182  0.24182849  0.59579091    -0.06000
Br2218     Br  0.74480684  0.34546519  0.65461059    -0.00300
Br2219     Br  0.84065392  0.24469845  0.60948109     0.00100
Br2220     Br  0.73338043  0.23116866  0.66328062    -0.04300
Br2221     Br  0.68336578  0.28245917  0.59432114     0.00200
Br2222     Br  0.78012507  0.29895637  0.66547215    -0.03600
Br2223     Br  0.79787843  0.28609794  0.60193519    -0.04500
Br2224     Br  0.77239908  0.18609141  0.66439699    -0.00500
C2225       C  0.79922153  0.13142833  0.70453658     0.00900
C2226       C  0.77442882  0.12962944  0.69780625     0.03800
C2227       C  0.75625387  0.13128234  0.71550818    -0.12300
C2228       C  0.76249066  0.13061790  0.74021770     0.23100
C2229       C  0.78698198  0.12880266  0.74714468    -0.12900
C2230       C  0.80538522  0.13059619  0.72958238     0.04500
C2231       C  0.74341661  0.13242858  0.75900892     0.26900
C2232       C  0.74127802  0.15383520  0.77281945    -0.13600
C2233       C  0.72429992  0.15509944  0.79168656     0.05000
C2234       C  0.70784150  0.13594250  0.79522260    -0.09500
C2235       C  0.70921916  0.11497712  0.78077908     0.05800
C2236       C  0.72767534  0.11278076  0.76338243    -0.13900
Br2237     Br  0.79508910  0.12406377  0.78095132    -0.06000
Br2238     Br  0.76468172  0.12253923  0.66483585    -0.00300
Br2239     Br  0.72359738  0.18318607  0.81250018     0.00100
Br2240     Br  0.73180039  0.08270035  0.74604309    -0.04300
Br2241     Br  0.83846579  0.13326173  0.74091569     0.00200
Br2242     Br  0.72283240  0.13559613  0.70583901    -0.03600
Br2243     Br  0.76116899  0.18167886  0.76548378    -0.04500
Br2244     Br  0.68586566  0.08931362  0.78497144    -0.00500
C2245       C  0.87440288  0.20757750  0.70731098     0.00900
C2246       C  0.89446145  0.22317645  0.71041504     0.03800
C2247       C  0.89422873  0.24057090  0.72903718    -0.12300
C2248       C  0.87427379  0.24209931  0.74484107     0.23100
C2249       C  0.85416416  0.22678635  0.74165359    -0.12900
C2250       C  0.85383459  0.21021513  0.72235064     0.04500
C2251       C  0.87360729  0.26151076  0.76323621     0.26900
C2252       C  0.88624172  0.25888083  0.78524349    -0.13600
C2253       C  0.88815902  0.27861053  0.80127755     0.05000
C2254       C  0.87608837  0.30062120  0.79598905    -0.09500
C2255       C  0.86211461  0.30247993  0.77450116     0.05800
C2256       C  0.86138660  0.28319394  0.75794677    -0.13900
Br2257     Br  0.82679397  0.22910131  0.76335233    -0.06000
Br2258     Br  0.92220170  0.22126411  0.68921563    -0.00300
Br2259     Br  0.90808498  0.27542815  0.82995665     0.00100
Br2260     Br  0.84320894  0.28619019  0.72802682    -0.04300
Br2261     Br  0.82390754  0.19374091  0.71466928     0.00200
Br2262     Br  0.92088881  0.26298889  0.73260083    -0.03600
Br2263     Br  0.90023522  0.22792633  0.79352810    -0.04500
Br2264     Br  0.84194026  0.33016121  0.76817054    -0.00500
C2265       C  0.57503076  0.65788410  0.63676771     0.00900
C2266       C  0.56425469  0.63512176  0.63264851     0.03800
C2267       C  0.53882563  0.63293001  0.63184871    -0.12300
C2268       C  0.52404847  0.65352768  0.63506112     0.23100
C2269       C  0.53483884  0.67641708  0.63855890    -0.12900
C2270       C  0.56027678  0.67854767  0.63975134     0.04500
C2271       C  0.49721801  0.65091105  0.63628619     0.26900
C2272       C  0.48281391  0.65424825  0.61542838    -0.13600
C2273       C  0.45734490  0.65276358  0.61701484     0.05000
C2274       C  0.44613310  0.64767628  0.63946631    -0.09500
C2275       C  0.46076533  0.64259205  0.65994608     0.05800
C2276       C  0.48613054  0.64508268  0.65851933    -0.13900
Br2277     Br  0.51459643  0.70470978  0.64216210    -0.06000
Br2278     Br  0.58443759  0.60693386  0.62825284    -0.00300
Br2279     Br  0.43794448  0.65629799  0.58806979     0.00100
Br2280     Br  0.50576499  0.64192471  0.68738174    -0.04300
Br2281     Br  0.57483773  0.70946078  0.64715190     0.00200
Br2282     Br  0.52410979  0.60167241  0.62670390    -0.03600
Br2283     Br  0.49811029  0.66149189  0.58486217    -0.04500
Br2284     Br  0.44646312  0.63254134  0.69024995    -0.00500
C2285       C  0.64950347  0.57389258  0.64262237     0.00900
C2286       C  0.64594560  0.56300398  0.61972502     0.03800
C2287       C  0.64386932  0.53764529  0.61780027    -0.12300
C2288       C  0.64533000  0.52314428  0.63875678     0.23100
C2289       C  0.64782028  0.53409964  0.66172796    -0.12900
C2290       C  0.65001488  0.55941372  0.66366291     0.04500
C2291       C  0.64612492  0.49633689  0.63678801     0.26900
C2292       C  0.62494935  0.48248883  0.64003462    -0.13600
C2293       C  0.62641358  0.45705165  0.64141501     0.05000
C2294       C  0.64912012  0.44541155  0.63970430    -0.09500
C2295       C  0.67017295  0.45930111  0.63518318     0.05800
C2296       C  0.66859747  0.48467433  0.63358979    -0.13900
Br2297     Br  0.64899455  0.51418080  0.69047227    -0.06000
Br2298     Br  0.64363693  0.58282311  0.59103235    -0.00300
Br2299     Br  0.59722415  0.43815856  0.64486119     0.00100
Br2300     Br  0.69737454  0.50369895  0.62769797    -0.04300
Br2301     Br  0.65538911  0.57405308  0.69501866     0.00200
Br2302     Br  0.63949570  0.52259250  0.58651438    -0.03600
Br2303     Br  0.59406574  0.49856608  0.64289259    -0.04500
Br2304     Br  0.70162019  0.44405810  0.63278071    -0.00500
C2305       C  0.65687668  0.64503633  0.55748651     0.00900
C2306       C  0.63406186  0.64659302  0.54590751     0.03800
C2307       C  0.63229026  0.64417501  0.52050216    -0.12300
C2308       C  0.65321549  0.63993821  0.50653686     0.23100
C2309       C  0.67563363  0.63621932  0.51820284    -0.12900
C2310       C  0.67755732  0.63889533  0.54357090     0.04500
C2311       C  0.65218021  0.64238073  0.47965844     0.26900
C2312       C  0.64828539  0.62209044  0.46459659    -0.13600
C2313       C  0.64768299  0.62487931  0.43915272     0.05000
C2314       C  0.65046236  0.64808079  0.42872558    -0.09500
C2315       C  0.65415254  0.66837293  0.44388813     0.05800
C2316       C  0.65535458  0.66544630  0.46920638    -0.13900
Br2317     Br  0.70382410  0.62821342  0.49910044    -0.06000
Br2318     Br  0.60504978  0.65113458  0.56482901    -0.00300
Br2319     Br  0.64266671  0.59696955  0.41859649     0.00100
Br2320     Br  0.66241148  0.69294681  0.48972312    -0.04300
Br2321     Br  0.70902698  0.63572279  0.55866238     0.00200
Br2322     Br  0.60128957  0.64706295  0.50452618    -0.03600
Br2323     Br  0.64423881  0.59051400  0.47891372    -0.04500
Br2324     Br  0.65911272  0.70011812  0.43005104    -0.00500
C2325       C  0.86048810  0.44276387  0.85213153     0.00900
C2326       C  0.83997689  0.45769363  0.84915833     0.03800
C2327       C  0.84233797  0.48307202  0.85008575    -0.12300
C2328       C  0.86545381  0.49379910  0.85239335     0.23100
C2329       C  0.88605913  0.47885459  0.85508618    -0.12900
C2330       C  0.88347792  0.45341152  0.85562931     0.04500
C2331       C  0.86790293  0.52068114  0.85054918     0.26900
C2332       C  0.86580525  0.53198987  0.82769542    -0.13600
C2333       C  0.86534023  0.55743702  0.82594462     0.05000
C2334       C  0.86738703  0.57184859  0.84697841    -0.09500
C2335       C  0.87004875  0.56060833  0.86981273     0.05800
C2336       C  0.87046650  0.53508459  0.87157947    -0.13900
Br2337     Br  0.91786417  0.49322971  0.85699852    -0.06000
Br2338     Br  0.80890436  0.44340509  0.84172108    -0.00300
Br2339     Br  0.85972492  0.57253142  0.79486916     0.00100
Br2340     Br  0.87390093  0.51978202  0.90284107    -0.04300
Br2341     Br  0.91130017  0.43311996  0.86165767     0.00200
Br2342     Br  0.81386982  0.50326319  0.84765806    -0.03600
Br2343     Br  0.86276814  0.51247732  0.79876948    -0.04500
Br2344     Br  0.87276089  0.58021255  0.89868858    -0.00500
C2345       C  0.07463963  0.64621594  0.85206515     0.00900
C2346       C  0.06045199  0.63689938  0.83262536     0.03800
C2347       C  0.03495182  0.63870642  0.83322792    -0.12300
C2348       C  0.02324492  0.64883271  0.85348381     0.23100
C2349       C  0.03703149  0.65727971  0.87320094    -0.12900
C2350       C  0.06254475  0.65611242  0.87256433     0.04500
C2351       C  0.99638595  0.65127837  0.85375568     0.26900
C2352       C  0.98540309  0.67222889  0.84412545    -0.13600
C2353       C  0.96000459  0.67451215  0.84408131     0.05000
C2354       C  0.94543441  0.65571525  0.85330218    -0.09500
C2355       C  0.95635897  0.63476073  0.86297644     0.05800
C2356       C  0.98183392  0.63266159  0.86344507    -0.13900
Br2357     Br  0.02063530  0.67133369  0.90077862    -0.06000
Br2358     Br  0.07518365  0.62268962  0.80419670    -0.00300
Br2359     Br  0.94504509  0.70309491  0.83058607     0.00100
Br2360     Br  0.99695045  0.60417956  0.87692833    -0.04300
Br2361     Br  0.08027469  0.66794917  0.90039622     0.00200
Br2362     Br  0.01579775  0.62861383  0.80563377    -0.03600
Br2363     Br  0.00522380  0.69746536  0.83032831    -0.04500
Br2364     Br  0.93638915  0.60878653  0.87502100    -0.00500
C2365       C  0.86062448  0.65039959  0.93001762     0.00900
C2366       C  0.88354626  0.65020166  0.94150078     0.03800
C2367       C  0.88523254  0.64938593  0.96697519    -0.12300
C2368       C  0.86407642  0.64983961  0.98117401     0.23100
C2369       C  0.84116130  0.65023108  0.96981378    -0.12900
C2370       C  0.83940616  0.65001697  0.94430411     0.04500
C2371       C  0.86584992  0.65049264  0.00807752     0.26900
C2372       C  0.86482179  0.62883425  0.02150690    -0.13600
C2373       C  0.86434423  0.62962011  0.04703294     0.05000
C2374       C  0.86502794  0.65209615  0.05923481    -0.09500
C2375       C  0.86781904  0.67366422  0.04578078     0.05800
C2376       C  0.86802179  0.67285196  0.02024798    -0.13900
Br2377     Br  0.81223557  0.65213819  0.98937263    -0.06000
Br2378     Br  0.91279050  0.65103230  0.92248685    -0.00300
Br2379     Br  0.86359925  0.59984000  0.06528541     0.00100
Br2380     Br  0.87051577  0.70242026  0.00178409    -0.04300
Br2381     Br  0.80786389  0.65075464  0.92908530     0.00200
Br2382     Br  0.91650898  0.64790127  0.98264229    -0.03600
Br2383     Br  0.86389270  0.59815711  0.00475399    -0.04500
Br2384     Br  0.87012954  0.70453261  0.06211370    -0.00500
C2385       C  0.80872511  0.63486168  0.78697597     0.00900
C2386       C  0.81109479  0.64911958  0.76578027     0.03800
C2387       C  0.79274085  0.64890734  0.74797972    -0.12300
C2388       C  0.77247093  0.63367837  0.75064078     0.23100
C2389       C  0.77069667  0.61846783  0.77106331    -0.12900
C2390       C  0.78867328  0.61914842  0.78925075     0.04500
C2391       C  0.75256522  0.63439983  0.73241777     0.26900
C2392       C  0.73252219  0.64972356  0.73620225    -0.13600
C2393       C  0.71356550  0.65059783  0.71907254     0.05000
C2394       C  0.71481285  0.63651892  0.69765668    -0.09500
C2395       C  0.73513823  0.62136900  0.69379349     0.05800
C2396       C  0.75387255  0.62025882  0.71118287    -0.13900
Br2397     Br  0.74333075  0.59698034  0.77416828    -0.06000
Br2398     Br  0.83889391  0.66966563  0.76099817    -0.00300
Br2399     Br  0.68679407  0.67233513  0.72464405     0.00100
Br2400     Br  0.78165772  0.59970561  0.70583217    -0.04300
Br2401     Br  0.78633686  0.59769603  0.81677367     0.00200
Br2402     Br  0.79466785  0.67031009  0.72033499    -0.03600
Br2403     Br  0.73173202  0.67034986  0.76452186    -0.04500
Br2404     Br  0.73720817  0.60152756  0.66498487    -0.00500
C2405       C  0.57315393  0.86108586  0.85006200     0.00900
C2406       C  0.56043294  0.87848669  0.83580489     0.03800
C2407       C  0.53491208  0.87837740  0.83499823    -0.12300
C2408       C  0.52172644  0.86339973  0.85074401     0.23100
C2409       C  0.53408611  0.84805693  0.86689047    -0.12900
C2410       C  0.55949925  0.84573356  0.86563089     0.04500
C2411       C  0.49484046  0.86242574  0.84926883     0.26900
C2412       C  0.48045220  0.87948181  0.86170737    -0.13600
C2413       C  0.45495321  0.87787774  0.86070567     0.05000
C2414       C  0.44381010  0.85879896  0.84780084    -0.09500
C2415       C  0.45830124  0.84206245  0.83496083     0.05800
C2416       C  0.48369955  0.84392951  0.83564080    -0.13900
Br2417     Br  0.51573114  0.82985963  0.89046214    -0.06000
Br2418     Br  0.57703289  0.90383696  0.81822651    -0.00300
Br2419     Br  0.43539835  0.90156501  0.87731925     0.00100
Br2420     Br  0.50341015  0.82123543  0.81768593    -0.04300
Br2421     Br  0.57426681  0.81977206  0.88394236     0.00200
Br2422     Br  0.51782830  0.89794156  0.81147003    -0.03600
Br2423     Br  0.49583505  0.90469925  0.88042319    -0.04500
Br2424     Br  0.44353402  0.81724003  0.81521698    -0.00500
C2425       C  0.64967974  0.94320143  0.84898993     0.00900
C2426       C  0.64390433  0.95775459  0.82865938     0.03800
C2427       C  0.64254427  0.98318363  0.83097276    -0.12300
C2428       C  0.64664291  0.99438504  0.85359438     0.23100
C2429       C  0.65128276  0.97991545  0.87412974    -0.12900
C2430       C  0.65300770  0.95447479  0.87185800     0.04500
C2431       C  0.64818746  0.02138188  0.85522042     0.26900
C2432       C  0.67089137  0.03284238  0.85280978    -0.13600
C2433       C  0.67257733  0.05832370  0.85311806     0.05000
C2434       C  0.65145080  0.07264853  0.85507863    -0.09500
C2435       C  0.62870630  0.06119801  0.85749880     0.05800
C2436       C  0.62714181  0.03564660  0.85803857    -0.13900
Br2437     Br  0.65564577  0.99523085  0.90532004    -0.06000
Br2438     Br  0.63968012  0.94330458  0.79702495    -0.00300
Br2439     Br  0.70384953  0.07351928  0.84943431     0.00100
Br2440     Br  0.59622011  0.02004949  0.86248205    -0.04300
Br2441     Br  0.65956685  0.93528004  0.90036596     0.00200
Br2442     Br  0.63614504  0.00299307  0.80285759    -0.03600
Br2443     Br  0.69963190  0.01344216  0.84809064    -0.04500
Br2444     Br  0.59971417  0.08056497  0.86015657    -0.00500
C2445       C  0.65205550  0.85913337  0.05851004     0.00900
C2446       C  0.64783603  0.88200780  0.04779831     0.03800
C2447       C  0.64779410  0.88441648  0.02238536    -0.12300
C2448       C  0.65152679  0.86397771  0.00757048     0.23100
C2449       C  0.65516147  0.84105927  0.01815861    -0.12900
C2450       C  0.65592664  0.83866736  0.04354434     0.04500
C2451       C  0.65292573  0.86656265  0.98083562     0.26900
C2452       C  0.63172460  0.86562149  0.96661429    -0.13600
C2453       C  0.63339378  0.86580878  0.94113398     0.05000
C2454       C  0.65632244  0.86615267  0.92981396    -0.09500
C2455       C  0.67747083  0.86830539  0.94414480     0.05800
C2456       C  0.67571946  0.86867842  0.96958797    -0.13900
Br2457     Br  0.65966525  0.81302547  0.99763787    -0.06000
Br2458     Br  0.64188806  0.91015677  0.06778388    -0.00300
Br2459     Br  0.60424303  0.86684909  0.92185458     0.00100
Br2460     Br  0.70461055  0.87127816  0.98924542    -0.04300
Br2461     Br  0.66471440  0.80772492  0.05741980     0.00200
Br2462     Br  0.64318126  0.91578617  0.00772144    -0.03600
Br2463     Br  0.60052110  0.86338840  0.98220603    -0.04500
Br2464     Br  0.70908239  0.86927567  0.92921107    -0.00500
C2465       C  0.63878091  0.80322148  0.79014756     0.00900
C2466       C  0.65509882  0.78348969  0.79020882     0.03800
C2467       C  0.65436619  0.76611601  0.77146705    -0.12300
C2468       C  0.63779929  0.76868286  0.75215161     0.23100
C2469       C  0.62135651  0.78824156  0.75213676    -0.12900
C2470       C  0.62166500  0.80529541  0.77120498     0.04500
C2471       C  0.63792427  0.75090398  0.73178288     0.26900
C2472       C  0.65424214  0.75375486  0.71233041    -0.13600
C2473       C  0.65502369  0.73644396  0.69349468     0.05000
C2474       C  0.63972175  0.71595373  0.69423029    -0.09500
C2475       C  0.62312227  0.71337936  0.71352151     0.05800
C2476       C  0.62223109  0.73078583  0.73220078    -0.13900
Br2477     Br  0.59860353  0.79171316  0.72577335    -0.06000
Br2478     Br  0.67955001  0.78082905  0.81498780    -0.00300
Br2479     Br  0.67798281  0.74031446  0.66747030     0.00100
Br2480     Br  0.59991680  0.72683158  0.75878742    -0.04300
Br2481     Br  0.59812727  0.83115629  0.77180703     0.00200
Br2482     Br  0.67621100  0.73875907  0.77200783    -0.03600
Br2483     Br  0.67611492  0.78104511  0.71208027    -0.04500
Br2484     Br  0.60111637  0.68619380  0.71412134    -0.00500
C2485       C  0.71389268  0.80397402  0.86643797     0.00900
C2486       C  0.73250302  0.80297708  0.84890670     0.03800
C2487       C  0.75008804  0.78449654  0.84981798    -0.12300
C2488       C  0.74899252  0.76659162  0.86796358     0.23100
C2489       C  0.73034926  0.76742428  0.88541089    -0.12900
C2490       C  0.71298883  0.78620777  0.88479539     0.04500
C2491       C  0.76733357  0.74676349  0.86822908     0.26900
C2492       C  0.76374228  0.72591338  0.85393230    -0.13600
C2493       C  0.78211541  0.70824525  0.85213825     0.05000
C2494       C  0.80393938  0.71081718  0.86546256    -0.09500
C2495       C  0.80709500  0.73139356  0.88045198     0.05800
C2496       C  0.78904985  0.74947455  0.88144356    -0.13900
Br2497     Br  0.72841283  0.74250063  0.90979465    -0.06000
Br2498     Br  0.73314063  0.82580917  0.82252843    -0.00300
Br2499     Br  0.77777674  0.68169105  0.82979191     0.00100
Br2500     Br  0.79418653  0.77838998  0.90044367    -0.04300
Br2501     Br  0.68830217  0.78803730  0.90947019     0.00200
Br2502     Br  0.77557769  0.78327387  0.82587375    -0.03600
Br2503     Br  0.73367611  0.72196773  0.83634832    -0.04500
Br2504     Br  0.83568265  0.73456143  0.90047267    -0.00500
C2505       C  0.85987405  0.85658973  0.43131379     0.00900
C2506       C  0.85829223  0.83596304  0.44630322     0.03800
C2507       C  0.85780275  0.83858754  0.47172941    -0.12300
C2508       C  0.85957446  0.86177043  0.48234733     0.23100
C2509       C  0.86164403  0.88235423  0.46740491    -0.12900
C2510       C  0.86184635  0.87978001  0.44196338     0.04500
C2511       C  0.85877963  0.86443108  0.50922403     0.26900
C2512       C  0.83637267  0.86742219  0.52108495    -0.13600
C2513       C  0.83537071  0.86810366  0.54662488     0.05000
C2514       C  0.85688732  0.86621189  0.56045243    -0.09500
C2515       C  0.87939946  0.86444028  0.54849502     0.05800
C2516       C  0.88031155  0.86317588  0.52298031    -0.13900
Br2517     Br  0.86319082  0.91412897  0.48191632    -0.06000
Br2518     Br  0.85553364  0.80415269  0.43202042    -0.00300
Br2519     Br  0.80427282  0.86988479  0.56250393     0.00100
Br2520     Br  0.91096747  0.85887686  0.50679408    -0.04300
Br2521     Br  0.86542488  0.90802972  0.42172497     0.00200
Br2522     Br  0.85329667  0.81058002  0.49212662    -0.03600
Br2523     Br  0.80697559  0.86964509  0.50217018    -0.04500
Br2524     Br  0.90906480  0.86446811  0.56708167    -0.00500
C2525       C  0.94166973  0.85604215  0.63771824     0.00900
C2526       C  0.95406755  0.87721997  0.63087963     0.03800
C2527       C  0.97958472  0.87771546  0.63135036    -0.12300
C2528       C  0.99266665  0.85700425  0.63864965     0.23100
C2529       C  0.98020181  0.83566973  0.64499596    -0.12900
C2530       C  0.95473971  0.83515062  0.64440374     0.04500
C2531       C  0.01951721  0.85768582  0.64021885     0.26900
C2532       C  0.03363163  0.85039104  0.62029473    -0.13600
C2533       C  0.05908899  0.84982560  0.62216805     0.05000
C2534       C  0.07063563  0.85641160  0.64415328    -0.09500
C2535       C  0.05631284  0.86441758  0.66392341     0.05800
C2536       C  0.03085635  0.86491332  0.66192908    -0.13900
Br2537     Br  0.99807513  0.80746304  0.65540705    -0.06000
Br2538     Br  0.93595062  0.90539880  0.62086685    -0.00300
Br2539     Br  0.07787203  0.84119572  0.59398510     0.00100
Br2540     Br  0.01119907  0.87489009  0.68914250    -0.04300
Br2541     Br  0.93773135  0.80607134  0.65370986     0.00200
Br2542     Br  0.99670294  0.90688166  0.62274280    -0.03600
Br2543     Br  0.01781534  0.84097470  0.59048020    -0.04500
Br2544     Br  0.07099859  0.87374561  0.69433959    -0.00500
C2545       C  0.85802859  0.07267961  0.64277591     0.00900
C2546       C  0.83761306  0.05726954  0.64532611     0.03800
C2547       C  0.84048044  0.03198367  0.64419374    -0.12300
C2548       C  0.86364295  0.02179949  0.64117675     0.23100
C2549       C  0.88393096  0.03689645  0.63817509    -0.12900
C2550       C  0.88116835  0.06225129  0.63855103     0.04500
C2551       C  0.86642678  0.99508726  0.64175631     0.26900
C2552       C  0.86974835  0.98320106  0.66410291    -0.13600
C2553       C  0.86955401  0.95772852  0.66514280     0.05000
C2554       C  0.86572604  0.94402259  0.64380909    -0.09500
C2555       C  0.86286634  0.95603300  0.62136682     0.05800
C2556       C  0.86343873  0.98150509  0.62034909    -0.13900
Br2557     Br  0.91559853  0.02264228  0.63404372    -0.06000
Br2558     Br  0.80569496  0.06993166  0.65223106    -0.00300
Br2559     Br  0.87234823  0.94190429  0.69623191     0.00100
Br2560     Br  0.85910160  0.99807639  0.58983404    -0.04300
Br2561     Br  0.90932134  0.08228199  0.63251664     0.00200
Br2562     Br  0.81269664  0.01091193  0.64748811    -0.03600
Br2563     Br  0.87307036  0.00203535  0.69346876    -0.04500
Br2564     Br  0.85795853  0.93775806  0.59193866    -0.00500
C2565       C  0.80077015  0.80639344  0.62012756     0.00900
C2566       C  0.77708503  0.80894557  0.62955934     0.03800
C2567       C  0.76015413  0.79005951  0.62669445    -0.12300
C2568       C  0.76692407  0.76843775  0.61493128     0.23100
C2569       C  0.79010237  0.76624804  0.60462680    -0.12900
C2570       C  0.80690040  0.78524090  0.60693924     0.04500
C2571       C  0.75015952  0.74746573  0.61485532     0.26900
C2572       C  0.75168583  0.73019042  0.63357569    -0.13600
C2573       C  0.73474375  0.71122123  0.63474617     0.05000
C2574       C  0.71615478  0.70949381  0.61720907    -0.09500
C2575       C  0.71513029  0.72635347  0.59803709     0.05800
C2576       C  0.73218700  0.74527051  0.59681183    -0.13900
Br2577     Br  0.79888530  0.73691822  0.58769656    -0.06000
Br2578     Br  0.76802135  0.83729554  0.64795389    -0.00300
Br2579     Br  0.73622150  0.68874020  0.66140588     0.00100
Br2580     Br  0.73079058  0.76854821  0.57079599    -0.04300
Br2581     Br  0.83806468  0.78225275  0.59123582     0.00200
Br2582     Br  0.72771181  0.79333709  0.63938432    -0.03600
Br2583     Br  0.77657586  0.73312106  0.65812797    -0.04500
Br2584     Br  0.69039984  0.72341357  0.57341194    -0.00500
C2585       C  0.87789334  0.80390148  0.69957765     0.00900
C2586       C  0.86070257  0.78497470  0.70048167     0.03800
C2587       C  0.86286177  0.76657906  0.71805019    -0.12300
C2588       C  0.88191745  0.76724591  0.73510692     0.23100
C2589       C  0.89886620  0.78632961  0.73445720    -0.12900
C2590       C  0.89680759  0.80466912  0.71681739     0.04500
C2591       C  0.88304314  0.74884732  0.75479096     0.26900
C2592       C  0.87064376  0.75306574  0.77665504    -0.13600
C2593       C  0.87102308  0.73560039  0.79524838     0.05000
C2594       C  0.88312356  0.71319686  0.79173941    -0.09500
C2595       C  0.89628573  0.70943485  0.77003598     0.05800
C2596       C  0.89626834  0.72724639  0.75169609    -0.13900
Br2597     Br  0.92472970  0.78737748  0.75801573    -0.06000
Br2598     Br  0.83295646  0.78527655  0.67913970    -0.00300
Br2599     Br  0.85424377  0.74284396  0.82503810     0.00100
Br2600     Br  0.91428349  0.72220517  0.72217114    -0.04300
Br2601     Br  0.91990923  0.83090080  0.71632615     0.00200
Br2602     Br  0.83942188  0.74063526  0.71922880    -0.03600
Br2603     Br  0.85251451  0.78276734  0.78071894    -0.04500
Br2604     Br  0.91557461  0.68054018  0.76578652    -0.00500
C2605       C  0.80595993  0.88296362  0.70202106     0.00900
C2606       C  0.80669257  0.86747291  0.72236217     0.03800
C2607       C  0.78874664  0.86917736  0.74029562    -0.12300
C2608       C  0.76997055  0.88627533  0.73791692     0.23100
C2609       C  0.76972586  0.90241059  0.71815405    -0.12900
C2610       C  0.78791021  0.90095880  0.70036977     0.04500
C2611       C  0.74966553  0.88593880  0.75536697     0.26900
C2612       C  0.73098603  0.86885054  0.75231979    -0.13600
C2613       C  0.71279241  0.86670293  0.76994216     0.05000
C2614       C  0.71270636  0.88228831  0.79024956    -0.09500
C2615       C  0.73102356  0.89991359  0.79287940     0.05800
C2616       C  0.74972271  0.90146832  0.77564078    -0.13900
Br2617     Br  0.74397562  0.92583875  0.71510746    -0.06000
Br2618     Br  0.83137592  0.84303474  0.72544387    -0.00300
Br2619     Br  0.68939565  0.84099394  0.76698446     0.00100
Br2620     Br  0.77587694  0.92422614  0.78007802    -0.04300
Br2621     Br  0.78865992  0.92412114  0.67419164     0.00200
Br2622     Br  0.78917424  0.84740000  0.76774380    -0.03600
Br2623     Br  0.73090685  0.84783532  0.72424201    -0.04500
Br2624     Br  0.73023677  0.92220041  0.81985917    -0.00500
loop_ 
_geom_bond_atom_site_label_1 
_geom_bond_atom_site_label_2 
_geom_bond_distance 
_geom_bond_site_symmetry_2 
_ccdc_geom_bond_type 
O1           C16   1.261       .  A
O1           Al9   1.900       .  S
C2           O12   1.258       .  A
C2            O3   1.260       .  A
C2         C2585   1.480       .  S
O3           Al5   1.914       .  S
O4            C6   1.253       .  A
O4           Al5   1.876       .  S
Al5          O13   1.892       .  S
Al5          O15   1.916       .  S
Al5          O14   1.791       .  S
C6           O19   1.259       .  A
C6         C2565   1.481       .  S
O7           C17   1.260       .  A
O7           Al9   1.893       .  S
O8           C21   1.259       .  A
O8          Al18   1.899       .  S
Al9          O22   1.913       .  S
Al9          O19   1.920       .  S
Al9          O14   1.799       .  S
O10          C17   1.260       .  A
O10         Al18   1.911       .  S
O11          C20   1.257       .  A
O11         Al18   1.898       .  S
O12         Al18   1.890       .  S
O13          C20   1.256       .  A
O14         Al18   1.797       .  S
O15          C16   1.264       .  A
C16        C2514   1.482       .  S
C17        C2605   1.473       .  S
C20        C2525   1.469       .  S
C21          O22   1.261       .  A
C21        C2554   1.480       .  S
O23          C38   1.256       .  A
O23         Al31   1.889       .  S
C24          O34   1.259       .  A
C24          O25   1.265       .  A
C24        C2465   1.485       .  S
O25         Al27   1.931       .  S
O26          C28   1.258       .  A
O26         Al27   1.893       .  S
Al27         O35   1.907       .  S
Al27         O37   1.909       .  S
Al27         O36   1.796       .  S
C28          O41   1.262       .  A
C28        C2485   1.484       .  S
O29          C39   1.254       .  A
O29         Al31   1.881       .  S
O30          C43   1.263       .  A
O30         Al40   1.910       .  S
Al31         O44   1.923       .  S
Al31         O41   1.920       .  S
Al31         O36   1.797       .  S
O32          C39   1.257       .  A
O32         Al40   1.910       .  S
O33          C42   1.257       .  A
O33         Al40   1.906       .  S
O34         Al40   1.890       .  S
O35          C42   1.258       .  A
O36         Al40   1.796       .  S
O37          C38   1.260       .  A
C38        C2454   1.479       .  S
C39        C2614   1.473       .  S
C42        C2405   1.501       .  S
C43          O44   1.264       .  A
C43        C2425   1.493       .  S
O45          C60   1.260       .  A
O45         Al53   1.904       .  S
C46          O56   1.258       .  A
C46          O47   1.258       .  A
C46        C2594   1.491       .  S
O47         Al49   1.910       .  S
O48          C50   1.258       .  A
O48         Al49   1.897       .  S
Al49         O57   1.903       .  S
Al49         O59   1.901       .  S
Al49         O58   1.804       .  S
C50          O63   1.259       .  A
C50        C2494   1.489       .  S
O51          C61   1.258       .  A
O51         Al53   1.897       .  S
O52          C65   1.260       .  A
O52         Al62   1.906       .  S
Al53         O66   1.907       .  S
Al53         O63   1.913       .  S
Al53         O58   1.804       .  S
O54          C61   1.257       .  A
O54         Al62   1.907       .  S
O55          C64   1.257       .  A
O55         Al62   1.898       .  S
O56         Al62   1.897       .  S
O57          C64   1.259       .  A
O58         Al62   1.804       .  S
O59          C60   1.258       .  A
C60        C2365   1.482       .  S
C61        C2385   1.485       .  S
C64        C2354   1.474       .  S
C65          O66   1.259       .  A
C65        C2334   1.481       .  S
O67          C82   1.256       .  A
O67         Al75   1.886       .  S
C68          O78   1.257       .  A
C68          O69   1.263       .  A
C68        C2474   1.483       .  S
O69         Al71   1.929       .  S
O70          C72   1.255       .  A
O70         Al71   1.882       .  S
Al71         O79   1.897       .  S
Al71         O81   1.927       .  S
Al71         O80   1.802       .  S
C72          O85   1.259       .  A
C72        C2574   1.475       .  S
O73          C83   1.255       .  A
O73         Al75   1.883       .  S
O74          C87   1.258       .  A
O74         Al84   1.894       .  S
Al75         O88   1.910       .  S
Al75         O85   1.914       .  S
Al75         O80   1.800       .  S
O76          C83   1.260       .  A
O76         Al84   1.922       .  S
O77          C86   1.259       .  A
O77         Al84   1.909       .  S
O78         Al84   1.883       .  S
O79          C86   1.258       .  A
O80         Al84   1.800       .  S
O81          C82   1.264       .  A
C82        C2305   1.487       .  S
C83        C2394   1.485       .  S
C86        C2265   1.477       .  S
C87          O88   1.261       .  A
C87        C2285   1.475       .  S
O89         C104   1.265       .  A
O89         Al97   1.927       .  S
C90         O100   1.259       .  A
C90          O91   1.256       .  A
C90        C2225   1.493       .  S
O91         Al93   1.885       .  S
O92          C94   1.265       .  A
O92         Al93   1.931       .  S
Al93        O101   1.926       .  S
Al93        O103   1.879       .  S
Al93        O102   1.778       .  S
C94         O107   1.255       .  A
C94        C2214   1.485       .  S
O95         C105   1.263       .  A
O95         Al97   1.915       .  S
O96         C109   1.262       .  A
O96        Al106   1.914       .  S
Al97        O110   1.895       .  S
Al97        O107   1.883       .  S
Al97        O102   1.788       .  S
O98         C105   1.259       .  A
O98        Al106   1.881       .  S
O99         C108   1.259       .  A
O99        Al106   1.874       .  S
O100       Al106   1.925       .  S
O101        C108   1.266       .  A
O102       Al106   1.786       .  S
O103        C104   1.256       .  A
C104       C2165   1.477       .  S
C105       C2245   1.475       .  S
C108       C2545   1.487       .  S
C109        O110   1.260       .  A
C109       C2185   1.494       .  S
O111        C126   1.257       .  A
O111       Al119   1.891       .  S
C112        O122   1.255       .  A
C112        O113   1.259       .  A
C112       C2134   1.503       .  S
O113       Al115   1.923       .  S
O114        C116   1.260       .  A
O114       Al115   1.907       .  S
Al115       O123   1.902       .  S
Al115       O125   1.921       .  S
Al115       O124   1.804       .  S
C116        O129   1.261       .  A
C116       C2145   1.489       .  S
O117        C127   1.255       .  A
O117       Al119   1.872       .  S
O118        C131   1.257       .  A
O118       Al128   1.903       .  S
Al119       O132   1.909       .  S
Al119       O129   1.923       .  S
Al119       O124   1.800       .  S
O120        C127   1.260       .  A
O120       Al128   1.914       .  S
O121        C130   1.262       .  A
O121       Al128   1.911       .  S
O122       Al128   1.893       .  S
O123        C130   1.262       .  A
O124       Al128   1.803       .  S
O125        C126   1.262       .  A
C126       C2105   1.484       .  S
C127       C2254   1.480       .  S
C130       C2325   1.480       .  S
C131        O132   1.259       .  A
C131       C2085   1.483       .  S
O133        C148   1.258       .  A
O133       Al141   1.898       .  S
C134        O144   1.255       .  A
C134        O135   1.257       .  A
C134       C2234   1.465       .  S
O135       Al137   1.900       .  S
O136        C138   1.258       .  A
O136       Al137   1.895       .  S
Al137       O145   1.905       .  S
Al137       O147   1.897       .  S
Al137       O146   1.806       .  S
C138        O151   1.262       .  A
C138       C2154   1.491       .  S
O139        C149   1.257       .  A
O139       Al141   1.895       .  S
O140        C153   1.258       .  A
O140       Al150   1.890       .  S
Al141       O154   1.917       .  S
Al141       O151   1.923       .  S
Al141       O146   1.805       .  S
O142        C149   1.260       .  A
O142       Al150   1.922       .  S
O143        C152   1.260       .  A
O143       Al150   1.915       .  S
O144       Al150   1.879       .  S
O145        C152   1.260       .  A
O146       Al150   1.803       .  S
O147        C148   1.257       .  A
C148       C2045   1.472       .  S
C149       C2065   1.487       .  S
C152       C2434   1.486       .  S
C153        O154   1.262       .  A
C153       C2034   1.479       .  S
O155        C170   1.263       .  A
O155       Al163   1.915       .  S
C156        O166   1.258       .  A
C156        O157   1.263       .  A
C156       C2125   1.477       .  S
O157       Al159   1.926       .  S
O158        C160   1.252       .  A
O158       Al159   1.869       .  S
Al159       O167   1.881       .  S
Al159       O169   1.916       .  S
Al159       O168   1.790       .  S
C160        O173   1.263       .  A
C160       C2205   1.498       .  S
O161        C171   1.262       .  A
O161       Al163   1.909       .  S
O162        C175   1.264       .  A
O162       Al172   1.909       .  S
Al163       O176   1.925       .  S
Al163       O173   1.925       .  S
Al163       O168   1.781       .  S
O164        C171   1.261       .  A
O164       Al172   1.924       .  S
O165        C174   1.264       .  A
O165       Al172   1.928       .  S
O166       Al172   1.893       .  S
O167        C174   1.255       .  A
O168       Al172   1.791       .  S
O169        C170   1.262       .  A
C170       C2005   1.498       .  S
C171       C2074   1.495       .  S
C174       C2294   1.479       .  S
C175        O176   1.265       .  A
C175       C1994   1.482       .  S
O177        C192   1.259       .  A
O177       Al185   1.903       .  S
C178        O188   1.253       .  A
C178        O179   1.266       .  A
C178       C1945   1.513       .  S
O179       Al181   1.942       .  S
O180        C182   1.260       .  A
O180       Al181   1.880       .  S
Al181       O189   1.893       .  S
Al181       O191   1.933       .  S
Al181       O190   1.786       .  S
C182        O195   1.260       .  A
C182       C1965   1.507       .  S
O183        C193   1.256       .  A
O183       Al185   1.892       .  S
O184        C197   1.256       .  A
O184       Al194   1.879       .  S
Al185       O198   1.926       .  S
Al185       O195   1.924       .  S
Al185       O190   1.784       .  S
O186        C193   1.265       .  A
O186       Al194   1.941       .  S
O187        C196   1.266       .  A
O187       Al194   1.933       .  S
O188       Al194   1.877       .  S
O189        C196   1.259       .  A
O190       Al194   1.786       .  S
O191        C192   1.264       .  A
C192       C1905   1.496       .  S
C193       C1925   1.487       .  S
C196       C2534   1.487       .  S
C197        O198   1.265       .  A
C197       C1885   1.475       .  S
O199        C214   1.260       .  A
O199       Al207   1.906       .  S
C200        O210   1.253       .  A
C200        O201   1.259       .  A
C200       C1845   1.503       .  S
O201       Al203   1.916       .  S
O202        C204   1.260       .  A
O202       Al203   1.891       .  S
Al203       O211   1.894       .  S
Al203       O213   1.918       .  S
Al203       O212   1.788       .  S
C204        O217   1.269       .  A
C204       C1974   1.484       .  S
O205        C215   1.261       .  A
O205       Al207   1.883       .  S
O206        C219   1.263       .  A
O206       Al216   1.912       .  S
Al207       O220   1.909       .  S
Al207       O217   1.932       .  S
Al207       O212   1.783       .  S
O208        C215   1.258       .  A
O208       Al216   1.905       .  S
O209        C218   1.269       .  A
O209       Al216   1.936       .  S
O210       Al216   1.900       .  S
O211        C218   1.262       .  A
O212       Al216   1.780       .  S
O213        C214   1.261       .  A
C214       C1814   1.491       .  S
C215       C1874   1.491       .  S
C218       C2414   1.479       .  S
C219        O220   1.261       .  A
C219       C1825   1.493       .  S
O221        C236   1.260       .  A
O221       Al229   1.904       .  S
C222        O232   1.258       .  A
C222        O223   1.264       .  A
C222       C1954   1.493       .  S
O223       Al225   1.926       .  S
O224        C226   1.257       .  A
O224       Al225   1.894       .  S
Al225       O233   1.910       .  S
Al225       O235   1.921       .  S
Al225       O234   1.790       .  S
C226        O239   1.264       .  A
C226       C1785   1.500       .  S
O227        C237   1.258       .  A
O227       Al229   1.889       .  S
O228        C241   1.262       .  A
O228       Al238   1.906       .  S
Al229       O242   1.924       .  S
Al229       O239   1.930       .  S
Al229       O234   1.794       .  S
O230        C237   1.258       .  A
O230       Al238   1.900       .  S
O231        C240   1.259       .  A
O231       Al238   1.909       .  S
O232       Al238   1.887       .  S
O233        C240   1.260       .  A
O234       Al238   1.792       .  S
O235        C236   1.264       .  A
C236       C1745   1.495       .  S
C237       C1865   1.491       .  S
C240       C2345   1.497       .  S
C241        O242   1.263       .  A
C241       C1765   1.489       .  S
O243        C258   1.262       .  A
O243       Al251   1.906       .  S
C244        O254   1.258       .  A
C244        O245   1.266       .  A
C244       C1854   1.473       .  S
O245       Al247   1.928       .  S
O246        C248   1.257       .  A
O246       Al247   1.898       .  S
Al247       O255   1.898       .  S
Al247       O257   1.921       .  S
Al247       O256   1.787       .  S
C248        O261   1.262       .  A
C248       C1794   1.501       .  S
O249        C259   1.259       .  A
O249       Al251   1.906       .  S
O250        C263   1.259       .  A
O250       Al260   1.891       .  S
Al251       O264   1.926       .  S
Al251       O261   1.917       .  S
Al251       O256   1.778       .  S
O252        C259   1.262       .  A
O252       Al260   1.932       .  S
O253        C262   1.262       .  A
O253       Al260   1.922       .  S
O254       Al260   1.880       .  S
O255        C262   1.257       .  A
O256       Al260   1.788       .  S
O257        C258   1.265       .  A
C258       C1714   1.495       .  S
C259       C1934   1.516       .  S
C262       C2274   1.486       .  S
C263        O264   1.264       .  A
C263       C1734   1.472       .  S
O265        C280   1.257       .  A
O265       Al273   1.885       .  S
C266        O276   1.259       .  A
C266        O267   1.265       .  A
C266       C1665   1.495       .  S
O267       Al269   1.934       .  S
O268        C270   1.256       .  A
O268       Al269   1.889       .  S
Al269       O277   1.895       .  S
Al269       O279   1.925       .  S
Al269       O278   1.794       .  S
C270        O283   1.262       .  A
C270       C1654   1.485       .  S
O271        C281   1.256       .  A
O271       Al273   1.884       .  S
O272        C285   1.261       .  A
O272       Al282   1.902       .  S
Al273       O286   1.919       .  S
Al273       O283   1.926       .  S
Al273       O278   1.794       .  S
O274        C281   1.263       .  A
O274       Al282   1.931       .  S
O275        C284   1.263       .  A
O275       Al282   1.926       .  S
O276       Al282   1.888       .  S
O277        C284   1.257       .  A
O278       Al282   1.789       .  S
O279        C280   1.265       .  A
C280       C2194   1.477       .  S
C281       C1694   1.479       .  S
C284       C1914   1.482       .  S
C285        O286   1.263       .  A
C285       C1625   1.485       .  S
O287        C302   1.259       .  A
O287       Al295   1.908       .  S
C288        O298   1.258       .  A
C288        O289   1.257       .  A
C288       C1614   1.483       .  S
O289       Al291   1.902       .  S
O290        C292   1.254       .  A
O290       Al291   1.875       .  S
Al291       O299   1.889       .  S
Al291       O301   1.897       .  S
Al291       O300   1.812       .  S
C292        O305   1.258       .  A
C292       C1594   1.474       .  S
O293        C303   1.257       .  A
O293       Al295   1.900       .  S
O294        C307   1.261       .  A
O294       Al304   1.906       .  S
Al295       O308   1.901       .  S
Al295       O305   1.906       .  S
Al295       O300   1.809       .  S
O296        C303   1.258       .  A
O296       Al304   1.912       .  S
O297        C306   1.258       .  A
O297       Al304   1.907       .  S
O298       Al304   1.897       .  S
O299        C306   1.255       .  A
O300       Al304   1.811       .  S
O301        C302   1.257       .  A
C302       C1985   1.490       .  S
C303       C1685   1.492       .  S
C306       C1705   1.475       .  S
C307        O308   1.259       .  A
C307       C1565   1.484       .  S
O309        C324   1.258       .  A
O309       Al317   1.889       .  S
C310        O320   1.259       .  A
C310        O311   1.260       .  A
C310       C1674   1.479       .  S
O311       Al313   1.914       .  S
O312        C314   1.254       .  A
O312       Al313   1.880       .  S
Al313       O321   1.886       .  S
Al313       O323   1.917       .  S
Al313       O322   1.798       .  S
C314        O327   1.258       .  A
C314       C1585   1.484       .  S
O315        C325   1.259       .  A
O315       Al317   1.893       .  S
O316        C329   1.260       .  A
O316       Al326   1.910       .  S
Al317       O330   1.909       .  S
Al317       O327   1.914       .  S
Al317       O322   1.797       .  S
O318        C325   1.262       .  A
O318       Al326   1.920       .  S
O319        C328   1.259       .  A
O319       Al326   1.903       .  S
O320       Al326   1.895       .  S
O321        C328   1.255       .  A
O322       Al326   1.797       .  S
O323        C324   1.263       .  A
C324       C2025   1.478       .  S
C325       C1545   1.479       .  S
C328       C1805   1.471       .  S
C329        O330   1.259       .  A
C329       C1525   1.488       .  S
O331        C346   1.261       .  A
O331       Al339   1.899       .  S
C332        O342   1.256       .  A
C332        O333   1.259       .  A
C332       C1605   1.475       .  S
O333       Al335   1.908       .  S
O334        C336   1.257       .  A
O334       Al335   1.898       .  S
Al335       O343   1.898       .  S
Al335       O345   1.923       .  S
Al335       O344   1.798       .  S
C336        O349   1.258       .  A
C336       C1645   1.486       .  S
O337        C347   1.260       .  A
O337       Al339   1.889       .  S
O338        C351   1.257       .  A
O338       Al348   1.897       .  S
Al339       O352   1.898       .  S
Al339       O349   1.915       .  S
Al339       O344   1.795       .  S
O340        C347   1.263       .  A
O340       Al348   1.926       .  S
O341        C350   1.260       .  A
O341       Al348   1.907       .  S
O342       Al348   1.881       .  S
O343        C350   1.259       .  A
O344       Al348   1.800       .  S
O345        C346   1.265       .  A
C346       C2094   1.491       .  S
C347       C1554   1.487       .  S
C350       C1754   1.477       .  S
C351        O352   1.256       .  A
C351       C1514   1.470       .  S
O353        C368   1.259       .  A
O353       Al361   1.895       .  S
C354        O364   1.257       .  A
C354        O355   1.261       .  A
C354       C1445   1.483       .  S
O355       Al357   1.917       .  S
O356        C358   1.258       .  A
O356       Al357   1.898       .  S
Al357       O365   1.905       .  S
Al357       O367   1.906       .  S
Al357       O366   1.799       .  S
C358        O371   1.261       .  A
C358       C1485   1.502       .  S
O359        C369   1.259       .  A
O359       Al361   1.896       .  S
O360        C373   1.258       .  A
O360       Al370   1.892       .  S
Al361       O374   1.923       .  S
Al361       O371   1.927       .  S
Al361       O366   1.799       .  S
O362        C369   1.259       .  A
O362       Al370   1.911       .  S
O363        C372   1.258       .  A
O363       Al370   1.903       .  S
O364       Al370   1.885       .  S
O365        C372   1.259       .  A
O366       Al370   1.798       .  S
O367        C368   1.260       .  A
C368       C1414   1.474       .  S
C369       C1474   1.483       .  S
C372       C2505   1.481       .  S
C373        O374   1.263       .  A
C373       C1425   1.482       .  S
O375        C390   1.260       .  A
O375       Al383   1.903       .  S
C376        O386   1.260       .  A
C376        O377   1.262       .  A
C376       C1385   1.487       .  S
O377       Al379   1.919       .  S
O378        C380   1.255       .  A
O378       Al379   1.890       .  S
Al379       O387   1.896       .  S
Al379       O389   1.923       .  S
Al379       O388   1.794       .  S
C380        O393   1.261       .  A
C380       C1494   1.484       .  S
O381        C391   1.260       .  A
O381       Al383   1.894       .  S
O382        C395   1.261       .  A
O382       Al392   1.908       .  S
Al383       O396   1.916       .  S
Al383       O393   1.931       .  S
Al383       O388   1.790       .  S
O384        C391   1.261       .  A
O384       Al392   1.919       .  S
O385        C394   1.260       .  A
O385       Al392   1.909       .  S
O386       Al392   1.900       .  S
O387        C394   1.258       .  A
O388       Al392   1.796       .  S
O389        C390   1.263       .  A
C390       C1345   1.499       .  S
C391       C1365   1.486       .  S
C394       C2374   1.479       .  S
C395        O396   1.262       .  A
C395       C1325   1.487       .  S
O397        C412   1.259       .  A
O397       Al405   1.911       .  S
C398        O408   1.258       .  A
C398        O399   1.256       .  A
C398       C1394   1.489       .  S
O399       Al401   1.891       .  S
O400        C402   1.258       .  A
O400       Al401   1.897       .  S
Al401       O409   1.901       .  S
Al401       O411   1.907       .  S
Al401       O410   1.806       .  S
C402        O415   1.259       .  A
C402       C1314   1.494       .  S
O403        C413   1.257       .  A
O403       Al405   1.905       .  S
O404        C417   1.261       .  A
O404       Al414   1.906       .  S
Al405       O418   1.909       .  S
Al405       O415   1.901       .  S
Al405       O410   1.808       .  S
O406        C413   1.251       .  A
O406       Al414   1.876       .  S
O407        C416   1.254       .  A
O407       Al414   1.878       .  S
O408       Al414   1.903       .  S
O409        C416   1.258       .  A
O410       Al414   1.807       .  S
O411        C412   1.259       .  A
C412       C1274   1.489       .  S
C413       C1465   1.484       .  S
C416       C2445   1.479       .  S
C417        O418   1.263       .  A
C417       C1294   1.493       .  S
O419        C434   1.255       .  A
O419       Al427   1.894       .  S
C420        O430   1.256       .  A
C420        O421   1.254       .  A
C420       C1454   1.482       .  S
O421       Al423   1.888       .  S
O422        C424   1.258       .  A
O422       Al423   1.899       .  S
Al423       O431   1.903       .  S
Al423       O433   1.899       .  S
Al423       O432   1.819       .  S
C424        O437   1.255       .  A
C424       C1305   1.488       .  S
O425        C435   1.254       .  A
O425       Al427   1.888       .  S
O426        C439   1.258       .  A
O426       Al436   1.896       .  S
Al427       O440   1.873       .  S
Al427       O437   1.884       .  S
Al427       O432   1.820       .  S
O428        C435   1.253       .  A
O428       Al436   1.887       .  S
O429        C438   1.254       .  A
O429       Al436   1.885       .  S
O430       Al436   1.899       .  S
O431        C438   1.258       .  A
O432       Al436   1.818       .  S
O433        C434   1.255       .  A
C434       C1225   1.487       .  S
C435       C1374   1.477       .  S
C438       C2314   1.480       .  S
C439        O440   1.254       .  A
C439       C1245   1.480       .  S
O441        C456   1.257       .  A
O441       Al449   1.899       .  S
C442        O452   1.262       .  A
C442        O443   1.261       .  A
C442       C1165   1.491       .  S
O443       Al445   1.916       .  S
O444        C446   1.259       .  A
O444       Al445   1.898       .  S
Al445       O453   1.901       .  S
Al445       O455   1.906       .  S
Al445       O454   1.798       .  S
C446        O459   1.262       .  A
C446       C1194   1.483       .  S
O447        C457   1.256       .  A
O447       Al449   1.887       .  S
O448        C461   1.263       .  A
O448       Al458   1.914       .  S
Al449       O462   1.927       .  S
Al449       O459   1.921       .  S
Al449       O454   1.798       .  S
O450        C457   1.258       .  A
O450       Al458   1.912       .  S
O451        C460   1.259       .  A
O451       Al458   1.905       .  S
O452       Al458   1.909       .  S
O453        C460   1.259       .  A
O454       Al458   1.800       .  S
O455        C456   1.259       .  A
C456       C1285   1.483       .  S
C457       C1214   1.482       .  S
C460       C2054   1.485       .  S
C461        O462   1.265       .  A
C461       C1145   1.499       .  S
O463        C478   1.257       .  A
O463       Al471   1.886       .  S
C464        O474   1.257       .  A
C464        O465   1.259       .  A
C464       C1105   1.481       .  S
O465       Al467   1.913       .  S
O466        C468   1.257       .  A
O466       Al467   1.893       .  S
Al467       O475   1.908       .  S
Al467       O477   1.906       .  S
Al467       O476   1.801       .  S
C468        O481   1.258       .  A
C468       C1134   1.475       .  S
O469        C479   1.255       .  A
O469       Al471   1.875       .  S
O470        C483   1.259       .  A
O470       Al480   1.897       .  S
Al471       O484   1.902       .  S
Al471       O481   1.908       .  S
Al471       O476   1.801       .  S
O472        C479   1.259       .  A
O472       Al480   1.910       .  S
O473        C482   1.259       .  A
O473       Al480   1.904       .  S
O474       Al480   1.886       .  S
O475        C482   1.261       .  A
O476       Al480   1.797       .  S
O477        C478   1.260       .  A
C478       C1254   1.472       .  S
C479       C1205   1.470       .  S
C482       C2014   1.481       .  S
C483        O484   1.259       .  A
C483       C1085   1.479       .  S
O485        C500   1.260       .  A
O485       Al493   1.903       .  S
C486        O496   1.257       .  A
C486        O487   1.258       .  A
C486       C1114   1.473       .  S
O487       Al489   1.906       .  S
O488        C490   1.258       .  A
O488       Al489   1.899       .  S
Al489       O497   1.902       .  S
Al489       O499   1.905       .  S
Al489       O498   1.804       .  S
C490        O503   1.261       .  A
C490       C1185   1.496       .  S
O491        C501   1.258       .  A
O491       Al493   1.897       .  S
O492        C505   1.260       .  A
O492       Al502   1.907       .  S
Al493       O506   1.917       .  S
Al493       O503   1.924       .  S
Al493       O498   1.801       .  S
O494        C501   1.261       .  A
O494       Al502   1.922       .  S
O495        C504   1.260       .  A
O495       Al502   1.909       .  S
O496       Al502   1.889       .  S
O497        C504   1.259       .  A
O498       Al502   1.805       .  S
O499        C500   1.259       .  A
C500       C1434   1.482       .  S
C501       C1074   1.495       .  S
C504       C2174   1.487       .  S
C505        O506   1.261       .  A
C505       C1045   1.487       .  S
O507        C522   1.256       .  A
O507       Al515   1.896       .  S
C508        O518   1.256       .  A
C508        O509   1.254       .  A
C508       C1174   1.490       .  S
O509       Al511   1.900       .  S
O510        C512   1.255       .  A
O510       Al511   1.880       .  S
Al511       O519   1.884       .  S
Al511       O521   1.904       .  S
Al511       O520   1.809       .  S
C512        O525   1.258       .  A
C512       C1125   1.484       .  S
O513        C523   1.256       .  A
O513       Al515   1.889       .  S
O514        C527   1.257       .  A
O514       Al524   1.904       .  S
Al515       O528   1.889       .  S
Al515       O525   1.906       .  S
Al515       O520   1.818       .  S
O516        C523   1.262       .  A
O516       Al524   1.920       .  S
O517        C526   1.264       .  A
O517       Al524   1.921       .  S
O518       Al524   1.904       .  S
O519        C526   1.257       .  A
O520       Al524   1.816       .  S
O521        C522   1.257       .  A
C522       C1334   1.481       .  S
C523       C1065   1.488       .  S
C526       C2114   1.482       .  S
C527        O528   1.254       .  A
C527       C1025   1.480       .  S
O529        C544   1.261       .  A
O529       Al537   1.915       .  S
C530        O540   1.254       .  A
C530        O531   1.255       .  A
C530        C965   1.475       .  S
O531       Al533   1.903       .  S
O532        C534   1.257       .  A
O532       Al533   1.887       .  S
Al533       O541   1.892       .  S
Al533       O543   1.910       .  S
Al533       O542   1.806       .  S
C534        O547   1.261       .  A
C534       C1005   1.482       .  S
O535        C545   1.259       .  A
O535       Al537   1.901       .  S
O536        C549   1.255       .  A
O536       Al546   1.891       .  S
Al537       O550   1.906       .  S
Al537       O547   1.918       .  S
Al537       O542   1.807       .  S
O538        C545   1.262       .  A
O538       Al546   1.924       .  S
O539        C548   1.262       .  A
O539       Al546   1.916       .  S
O540       Al546   1.883       .  S
O541        C548   1.259       .  A
O542       Al546   1.808       .  S
O543        C544   1.259       .  A
C544       C1054   1.493       .  S
C545        C985   1.495       .  S
C548       C1634   1.477       .  S
C549        O550   1.259       .  A
C549        C954   1.477       .  S
O551        C566   1.259       .  A
O551       Al559   1.898       .  S
C552        O562   1.255       .  A
C552        O553   1.261       .  A
C552       C1014   1.483       .  S
O553       Al555   1.924       .  S
O554        C556   1.256       .  A
O554       Al555   1.877       .  S
Al555       O563   1.897       .  S
Al555       O565   1.918       .  S
Al555       O564   1.795       .  S
C556        O569   1.261       .  A
C556        C914   1.477       .  S
O557        C567   1.257       .  A
O557       Al559   1.881       .  S
O558        C571   1.258       .  A
O558       Al568   1.894       .  S
Al559       O572   1.907       .  S
Al559       O569   1.918       .  S
Al559       O564   1.795       .  S
O560        C567   1.262       .  A
O560       Al568   1.922       .  S
O561        C570   1.263       .  A
O561       Al568   1.912       .  S
O562       Al568   1.887       .  S
O563        C570   1.260       .  A
O564       Al568   1.792       .  S
O565        C566   1.262       .  A
C566        C885   1.475       .  S
C567        C934   1.478       .  S
C570       C1034   1.478       .  S
C571        O572   1.258       .  A
C571       C1505   1.483       .  S
O573        C588   1.260       .  A
O573       Al581   1.910       .  S
C574        O584   1.257       .  A
C574        O575   1.256       .  A
C574        C865   1.487       .  S
O575       Al577   1.907       .  S
O576        C578   1.260       .  A
O576       Al577   1.899       .  S
Al577       O585   1.921       .  S
Al577       O587   1.907       .  S
Al577       O586   1.800       .  S
C578        O591   1.262       .  A
C578        C994   1.491       .  S
O579        C589   1.258       .  A
O579       Al581   1.893       .  S
O580        C593   1.258       .  A
O580       Al590   1.903       .  S
Al581       O594   1.904       .  S
Al581       O591   1.927       .  S
Al581       O586   1.803       .  S
O582        C589   1.261       .  A
O582       Al590   1.917       .  S
O583        C592   1.263       .  A
O583       Al590   1.916       .  S
O584       Al590   1.895       .  S
O585        C592   1.265       .  A
O586       Al590   1.801       .  S
O587        C588   1.258       .  A
C588        C845   1.502       .  S
C589        C925   1.486       .  S
C592       C1154   1.491       .  S
C593        O594   1.258       .  A
C593       C1534   1.479       .  S
O595        C610   1.257       .  A
O595       Al603   1.898       .  S
C596        O606   1.258       .  A
C596        O597   1.258       .  A
C596        C874   1.490       .  S
O597       Al599   1.910       .  S
O598        C600   1.254       .  A
O598       Al599   1.878       .  S
Al599       O607   1.893       .  S
Al599       O609   1.907       .  S
Al599       O608   1.812       .  S
C600        O613   1.256       .  A
C600        C905   1.468       .  S
O601        C611   1.255       .  A
O601       Al603   1.887       .  S
O602        C615   1.261       .  A
O602       Al612   1.909       .  S
Al603       O616   1.895       .  S
Al603       O613   1.895       .  S
Al603       O608   1.811       .  S
O604        C611   1.256       .  A
O604       Al612   1.898       .  S
O605        C614   1.257       .  A
O605       Al612   1.892       .  S
O606       Al612   1.902       .  S
O607        C614   1.258       .  A
O608       Al612   1.812       .  S
O609        C610   1.258       .  A
C610        C834   1.487       .  S
C611        C974   1.480       .  S
C614       C1094   1.473       .  S
C615        O616   1.257       .  A
C615       C1574   1.482       .  S
O617        C632   1.265       .  A
O617       Al625   1.922       .  S
C618        O628   1.267       .  A
C618        O619   1.258       .  A
C618        C785   1.483       .  S
O619       Al621   1.886       .  S
O620        C622   1.262       .  A
O620       Al621   1.931       .  S
Al621       O629   1.925       .  S
Al621       O631   1.908       .  S
Al621       O630   1.785       .  S
C622        O635   1.257       .  A
C622        C765   1.488       .  S
O623        C633   1.262       .  A
O623       Al625   1.923       .  S
O624        C637   1.263       .  A
O624       Al634   1.923       .  S
Al625       O638   1.893       .  S
Al625       O635   1.887       .  S
Al625       O630   1.778       .  S
O626        C633   1.255       .  A
O626       Al634   1.875       .  S
O627        C636   1.260       .  A
O627       Al634   1.903       .  S
O628       Al634   1.935       .  S
O629        C636   1.263       .  A
O630       Al634   1.788       .  S
O631        C632   1.264       .  A
C632       C1774   1.490       .  S
C633        C805   1.475       .  S
C636       C1354   1.485       .  S
C637        O638   1.259       .  A
C637        C894   1.494       .  S
O639        C654   1.255       .  A
O639       Al647   1.885       .  S
C640        O650   1.255       .  A
C640        O641   1.266       .  A
C640        C725   1.492       .  S
O641       Al643   1.939       .  S
O642        C644   1.254       .  A
O642       Al643   1.873       .  S
Al643       O651   1.886       .  S
Al643       O653   1.927       .  S
Al643       O652   1.792       .  S
C644        O657   1.268       .  A
C644        C745   1.502       .  S
O645        C655   1.253       .  A
O645       Al647   1.863       .  S
O646        C659   1.257       .  A
O646       Al656   1.893       .  S
Al647       O660   1.931       .  S
Al647       O657   1.943       .  S
Al647       O652   1.791       .  S
O648        C655   1.266       .  A
O648       Al656   1.932       .  S
O649        C658   1.267       .  A
O649       Al656   1.935       .  S
O650       Al656   1.885       .  S
O651        C658   1.256       .  A
O652       Al656   1.788       .  S
O653        C654   1.264       .  A
C654       C1725   1.485       .  S
C655        C814   1.490       .  S
C658       C1234   1.486       .  S
C659        O660   1.264       .  A
C659        C825   1.495       .  S
O661        C676   1.258       .  A
O661       Al669   1.896       .  S
C662        O672   1.254       .  A
C662        O663   1.263       .  A
C662        C794   1.490       .  S
O663       Al665   1.923       .  S
O664        C666   1.256       .  A
O664       Al665   1.881       .  S
Al665       O673   1.890       .  S
Al665       O675   1.923       .  S
Al665       O674   1.793       .  S
C666        O679   1.265       .  A
C666        C754   1.496       .  S
O667        C677   1.256       .  A
O667       Al669   1.879       .  S
O668        C681   1.257       .  A
O668       Al678   1.898       .  S
Al669       O682   1.921       .  S
Al669       O679   1.930       .  S
Al669       O674   1.789       .  S
O670        C677   1.270       .  A
O670       Al678   1.946       .  S
O671        C680   1.267       .  A
O671       Al678   1.938       .  S
O672       Al678   1.878       .  S
O673        C680   1.258       .  A
O674       Al678   1.788       .  S
O675        C676   1.263       .  A
C676       C1894   1.488       .  S
C677        C705   1.507       .  S
C680       C1405   1.493       .  S
C681        O682   1.261       .  A
C681        C945   1.493       .  S
O683        C698   1.266       .  A
O683       Al691   1.929       .  S
C684        O694   1.264       .  A
C684        O685   1.259       .  A
C684        C734   1.490       .  S
O685       Al687   1.887       .  S
O686        C688   1.259       .  A
O686       Al687   1.916       .  S
Al687       O695   1.932       .  S
Al687       O697   1.901       .  S
Al687       O696   1.787       .  S
C688        O701   1.255       .  A
C688        C774   1.471       .  S
O689        C699   1.267       .  A
O689       Al691   1.939       .  S
O690        C703   1.259       .  A
O690       Al700   1.908       .  S
Al691       O704   1.899       .  S
Al691       O701   1.883       .  S
Al691       O696   1.789       .  S
O692        C699   1.260       .  A
O692       Al700   1.899       .  S
O693        C702   1.259       .  A
O693       Al700   1.913       .  S
O694       Al700   1.933       .  S
O695        C702   1.265       .  A
O696       Al700   1.788       .  S
O697        C698   1.263       .  A
C698       C1834   1.487       .  S
C699        C714   1.497       .  S
C702       C1265   1.517       .  S
C703        O704   1.258       .  A
C703        C854   1.473       .  S
C705        C706   1.420       .  A
C705        C710   1.427       .  A
C706        C707   1.413       .  A
C706       Br718   1.928       .  S
C707        C708   1.408       .  A
C707       Br722   1.931       .  S
C708        C711   1.496       .  S
C708        C709   1.406       .  A
C709        C710   1.412       .  A
C709       Br717   1.934       .  S
C710       Br721   1.934       .  S
C711        C712   1.407       .  A
C711        C716   1.410       .  A
C712        C713   1.410       .  A
C712       Br723   1.933       .  S
C713        C714   1.416       .  A
C713       Br719   1.924       .  S
C714        C715   1.419       .  A
C715        C716   1.415       .  A
C715       Br724   1.931       .  S
C716       Br720   1.930       .  S
C725        C726   1.419       .  A
C725        C730   1.412       .  A
C726        C727   1.411       .  A
C726       Br738   1.930       .  S
C727        C728   1.407       .  A
C727       Br742   1.932       .  S
C728        C731   1.486       .  S
C728        C729   1.406       .  A
C729        C730   1.407       .  A
C729       Br737   1.931       .  S
C730       Br741   1.920       .  S
C731        C732   1.408       .  A
C731        C736   1.406       .  A
C732        C733   1.408       .  A
C732       Br743   1.930       .  S
C733        C734   1.415       .  A
C733       Br739   1.933       .  S
C734        C735   1.419       .  A
C735        C736   1.408       .  A
C735       Br744   1.925       .  S
C736       Br740   1.933       .  S
C745        C746   1.421       .  A
C745        C750   1.427       .  A
C746        C747   1.412       .  A
C746       Br758   1.929       .  S
C747        C748   1.406       .  A
C747       Br762   1.931       .  S
C748        C751   1.487       .  S
C748        C749   1.404       .  A
C749        C750   1.408       .  A
C749       Br757   1.937       .  S
C750       Br761   1.932       .  S
C751        C752   1.406       .  A
C751        C756   1.406       .  A
C752        C753   1.408       .  A
C752       Br763   1.934       .  S
C753        C754   1.423       .  A
C753       Br759   1.933       .  S
C754        C755   1.420       .  A
C755        C756   1.410       .  A
C755       Br764   1.930       .  S
C756       Br760   1.932       .  S
C765        C766   1.416       .  A
C765        C770   1.417       .  A
C766        C767   1.408       .  A
C766       Br778   1.931       .  S
C767        C768   1.406       .  A
C767       Br782   1.930       .  S
C768        C771   1.484       .  S
C768        C769   1.407       .  A
C769        C770   1.409       .  A
C769       Br777   1.933       .  S
C770       Br781   1.928       .  S
C771        C772   1.409       .  A
C771        C776   1.410       .  A
C772        C773   1.405       .  A
C772       Br783   1.930       .  S
C773        C774   1.408       .  A
C773       Br779   1.928       .  S
C774        C775   1.409       .  A
C775        C776   1.409       .  A
C775       Br784   1.930       .  S
C776       Br780   1.929       .  S
C785        C786   1.417       .  A
C785        C790   1.415       .  A
C786        C787   1.406       .  A
C786       Br798   1.923       .  S
C787        C788   1.405       .  A
C787       Br802   1.935       .  S
C788        C791   1.480       .  S
C788        C789   1.406       .  A
C789        C790   1.406       .  A
C789       Br797   1.929       .  S
C790       Br801   1.931       .  S
C791        C792   1.404       .  A
C791        C796   1.405       .  A
C792        C793   1.407       .  A
C792       Br803   1.932       .  S
C793        C794   1.417       .  A
C793       Br799   1.925       .  S
C794        C795   1.421       .  A
C795        C796   1.406       .  A
C795       Br804   1.933       .  S
C796       Br800   1.934       .  S
C805        C806   1.413       .  A
C805        C810   1.411       .  A
C806        C807   1.408       .  A
C806       Br818   1.930       .  S
C807        C808   1.407       .  A
C807       Br822   1.930       .  S
C808        C811   1.477       .  S
C808        C809   1.406       .  A
C809        C810   1.403       .  A
C809       Br817   1.933       .  S
C810       Br821   1.925       .  S
C811        C812   1.402       .  A
C811        C816   1.405       .  A
C812        C813   1.404       .  A
C812       Br823   1.935       .  S
C813        C814   1.424       .  A
C813       Br819   1.934       .  S
C814        C815   1.418       .  A
C815        C816   1.408       .  A
C815       Br824   1.929       .  S
C816       Br820   1.932       .  S
C825        C826   1.416       .  A
C825        C830   1.419       .  A
C826        C827   1.412       .  A
C826       Br838   1.930       .  S
C827        C828   1.410       .  A
C827       Br842   1.930       .  S
C828        C831   1.495       .  S
C828        C829   1.409       .  A
C829        C830   1.410       .  A
C829       Br837   1.932       .  S
C830       Br841   1.931       .  S
C831        C832   1.412       .  A
C831        C836   1.410       .  A
C832        C833   1.412       .  A
C832       Br843   1.930       .  S
C833        C834   1.413       .  A
C833       Br839   1.930       .  S
C834        C835   1.414       .  A
C835        C836   1.410       .  A
C835       Br844   1.932       .  S
C836       Br840   1.932       .  S
C845        C846   1.423       .  A
C845        C850   1.423       .  A
C846        C847   1.407       .  A
C846       Br858   1.934       .  S
C847        C848   1.404       .  A
C847       Br862   1.932       .  S
C848        C851   1.489   1_545  S
C848        C849   1.407       .  A
C849        C850   1.413       .  A
C849       Br857   1.933       .  S
C850       Br861   1.933       .  S
C851        C852   1.412       .  A
C851        C856   1.410       .  A
C852        C853   1.410       .  A
C852       Br863   1.928       .  S
C853        C854   1.408       .  A
C853       Br859   1.929       .  S
C854        C855   1.408       .  A
C855        C856   1.406       .  A
C855       Br864   1.929       .  S
C856       Br860   1.930       .  S
C865        C866   1.413       .  A
C865        C870   1.416       .  A
C866        C867   1.410       .  A
C866       Br878   1.932       .  S
C867        C868   1.410       .  A
C867       Br882   1.928       .  S
C868        C871   1.491       .  S
C868        C869   1.408       .  A
C869        C870   1.410       .  A
C869       Br877   1.932       .  S
C870       Br881   1.929       .  S
C871        C872   1.410       .  A
C871        C876   1.407       .  A
C872        C873   1.413       .  A
C872       Br883   1.928       .  S
C873        C874   1.413       .  A
C873       Br879   1.929       .  S
C874        C875   1.415       .  A
C875        C876   1.409       .  A
C875       Br884   1.924       .  S
C876       Br880   1.933       .  S
C885        C886   1.408       .  A
C885        C890   1.411       .  A
C886        C887   1.408       .  A
C886       Br898   1.926       .  S
C887        C888   1.409       .  A
C887       Br902   1.928       .  S
C888        C891   1.485       .  S
C888        C889   1.409       .  A
C889        C890   1.406       .  A
C889       Br897   1.932       .  S
C890       Br901   1.927       .  S
C891        C892   1.405       .  A
C891        C896   1.407       .  A
C892        C893   1.408       .  A
C892       Br903   1.933       .  S
C893        C894   1.423       .  A
C893       Br899   1.935       .  S
C894        C895   1.420       .  A
C895        C896   1.409       .  A
C895       Br904   1.933       .  S
C896       Br900   1.933       .  S
C905        C906   1.408       .  A
C905        C910   1.411       .  A
C906        C907   1.405       .  A
C906       Br918   1.930       .  S
C907        C908   1.407       .  A
C907       Br922   1.928       .  S
C908        C911   1.475       .  S
C908        C909   1.407       .  A
C909        C910   1.403       .  A
C909       Br917   1.933       .  S
C910       Br921   1.927       .  S
C911        C912   1.405       .  A
C911        C916   1.405       .  A
C912        C913   1.405       .  A
C912       Br923   1.931       .  S
C913        C914   1.415       .  A
C913       Br919   1.933       .  S
C914        C915   1.415       .  A
C915        C916   1.404       .  A
C915       Br924   1.927       .  S
C916       Br920   1.933       .  S
C925        C926   1.415       .  A
C925        C930   1.413       .  A
C926        C927   1.408       .  A
C926       Br938   1.926       .  S
C927        C928   1.407       .  A
C927       Br942   1.933       .  S
C928        C931   1.486       .  S
C928        C929   1.408       .  A
C929        C930   1.410       .  A
C929       Br937   1.929       .  S
C930       Br941   1.930       .  S
C931        C932   1.409       .  A
C931        C936   1.409       .  A
C932        C933   1.408       .  A
C932       Br943   1.931       .  S
C933        C934   1.411       .  A
C933       Br939   1.926       .  S
C934        C935   1.410       .  A
C935        C936   1.408       .  A
C935       Br944   1.930       .  S
C936       Br940   1.928       .  S
C945        C946   1.418       .  A
C945        C950   1.419       .  A
C946        C947   1.411       .  A
C946       Br958   1.929       .  S
C947        C948   1.406       .  A
C947       Br962   1.930       .  S
C948        C951   1.489   1_565  S
C948        C949   1.407       .  A
C949        C950   1.409       .  A
C949       Br957   1.932       .  S
C950       Br961   1.930       .  S
C951        C952   1.410       .  A
C951        C956   1.410       .  A
C952        C953   1.410       .  A
C952       Br963   1.927       .  S
C953        C954   1.410       .  A
C953       Br959   1.929       .  S
C954        C955   1.411       .  A
C955        C956   1.408       .  A
C955       Br964   1.931       .  S
C956       Br960   1.931       .  S
C965        C966   1.410       .  A
C965        C970   1.412       .  A
C966        C967   1.406       .  A
C966       Br978   1.929       .  S
C967        C968   1.409       .  A
C967       Br982   1.932       .  S
C968        C971   1.482       .  S
C968        C969   1.408       .  A
C969        C970   1.408       .  A
C969       Br977   1.929       .  S
C970       Br981   1.931       .  S
C971        C972   1.407       .  A
C971        C976   1.408       .  A
C972        C973   1.405       .  A
C972       Br983   1.933       .  S
C973        C974   1.414       .  A
C973       Br979   1.928       .  S
C974        C975   1.413       .  A
C975        C976   1.408       .  A
C975       Br984   1.931       .  S
C976       Br980   1.929       .  S
C985        C986   1.415       .  A
C985        C990   1.416       .  A
C986        C987   1.414       .  A
C986       Br998   1.930       .  S
C987        C988   1.410       .  A
C987      Br1002   1.929       .  S
C988        C991   1.496       .  S
C988        C989   1.409       .  A
C989        C990   1.412       .  A
C989       Br997   1.932       .  S
C990      Br1001   1.927       .  S
C991        C992   1.410       .  A
C991        C996   1.410       .  A
C992        C993   1.412       .  A
C992      Br1003   1.928       .  S
C993        C994   1.413       .  A
C993       Br999   1.931       .  S
C994        C995   1.416       .  A
C995        C996   1.413       .  A
C995      Br1004   1.927       .  S
C996      Br1000   1.931       .  S
C1005      C1006   1.414       .  A
C1005      C1010   1.412       .  A
C1006      C1007   1.409       .  A
C1006     Br1018   1.928       .  S
C1007      C1008   1.409       .  A
C1007     Br1022   1.931       .  S
C1008      C1011   1.487       .  S
C1008      C1009   1.408       .  A
C1009      C1010   1.408       .  A
C1009     Br1017   1.929       .  S
C1010     Br1021   1.930       .  S
C1011      C1012   1.407       .  A
C1011      C1016   1.409       .  A
C1012      C1013   1.406       .  A
C1012     Br1023   1.933       .  S
C1013      C1014   1.413       .  A
C1013     Br1019   1.923       .  S
C1014      C1015   1.412       .  A
C1015      C1016   1.411       .  A
C1015     Br1024   1.929       .  S
C1016     Br1020   1.928       .  S
C1025      C1026   1.410       .  A
C1025      C1030   1.413       .  A
C1026      C1027   1.407       .  A
C1026     Br1038   1.929       .  S
C1027      C1028   1.410       .  A
C1027     Br1042   1.933   1_655  S
C1028      C1031   1.487   1_655  S
C1028      C1029   1.408       .  A
C1029      C1030   1.410       .  A
C1029     Br1037   1.929       .  S
C1030     Br1041   1.929       .  S
C1031      C1032   1.409       .  A
C1031      C1036   1.409       .  A
C1032      C1033   1.407       .  A
C1032     Br1043   1.930       .  S
C1033      C1034   1.411       .  A
C1033     Br1039   1.930       .  S
C1034      C1035   1.412       .  A
C1035      C1036   1.409       .  A
C1035     Br1044   1.930       .  S
C1036     Br1040   1.928       .  S
C1045      C1046   1.411       .  A
C1045      C1050   1.411       .  A
C1046      C1047   1.412       .  A
C1046     Br1058   1.930       .  S
C1047      C1048   1.412       .  A
C1047     Br1062   1.929       .  S
C1048      C1051   1.499   1_655  S
C1048      C1049   1.412       .  A
C1049      C1050   1.414       .  A
C1049     Br1057   1.927       .  S
C1050     Br1061   1.928       .  S
C1051      C1052   1.411       .  A
C1051      C1056   1.410       .  A
C1052      C1053   1.413       .  A
C1052     Br1063   1.929       .  S
C1053      C1054   1.413       .  A
C1053     Br1059   1.930       .  S
C1054      C1055   1.415       .  A
C1055      C1056   1.414       .  A
C1055     Br1064   1.929       .  S
C1056     Br1060   1.928       .  S
C1065      C1066   1.413       .  A
C1065      C1070   1.414       .  A
C1066      C1067   1.410       .  A
C1066     Br1078   1.927       .  S
C1067      C1068   1.409       .  A
C1067     Br1082   1.931       .  S
C1068      C1071   1.494       .  S
C1068      C1069   1.410       .  A
C1069      C1070   1.413       .  A
C1069     Br1077   1.928       .  S
C1070     Br1081   1.930       .  S
C1071      C1072   1.409       .  A
C1071      C1076   1.408       .  A
C1072      C1073   1.413       .  A
C1072     Br1083   1.932       .  S
C1073      C1074   1.419       .  A
C1073     Br1079   1.930       .  S
C1074      C1075   1.417       .  A
C1075      C1076   1.411       .  A
C1075     Br1084   1.931       .  S
C1076     Br1080   1.930       .  S
C1085      C1086   1.413       .  A
C1085      C1090   1.413       .  A
C1086      C1087   1.407       .  A
C1086     Br1098   1.931       .  S
C1087      C1088   1.408       .  A
C1087     Br1102   1.931       .  S
C1088      C1091   1.484       .  S
C1088      C1089   1.409       .  A
C1089      C1090   1.408       .  A
C1089     Br1097   1.930       .  S
C1090     Br1101   1.930       .  S
C1091      C1092   1.409       .  A
C1091      C1096   1.410       .  A
C1092      C1093   1.406       .  A
C1092     Br1103   1.931       .  S
C1093      C1094   1.411       .  A
C1093     Br1099   1.931       .  S
C1094      C1095   1.410       .  A
C1095      C1096   1.408       .  A
C1095     Br1104   1.930       .  S
C1096     Br1100   1.929       .  S
C1105      C1106   1.414       .  A
C1105      C1110   1.413       .  A
C1106      C1107   1.408       .  A
C1106     Br1118   1.929       .  S
C1107      C1108   1.408       .  A
C1107     Br1122   1.932       .  S
C1108      C1111   1.483       .  S
C1108      C1109   1.407       .  A
C1109      C1110   1.407       .  A
C1109     Br1117   1.929       .  S
C1110     Br1121   1.931       .  S
C1111      C1112   1.410       .  A
C1111      C1116   1.408       .  A
C1112      C1113   1.407       .  A
C1112     Br1123   1.931       .  S
C1113      C1114   1.410       .  A
C1113     Br1119   1.928       .  S
C1114      C1115   1.409       .  A
C1115      C1116   1.407       .  A
C1115     Br1124   1.930       .  S
C1116     Br1120   1.928       .  S
C1125      C1126   1.417       .  A
C1125      C1130   1.416       .  A
C1126      C1127   1.408       .  A
C1126     Br1138   1.930       .  S
C1127      C1128   1.407       .  A
C1127     Br1142   1.933       .  S
C1128      C1131   1.482       .  S
C1128      C1129   1.406       .  A
C1129      C1130   1.406       .  A
C1129     Br1137   1.930       .  S
C1130     Br1141   1.933       .  S
C1131      C1132   1.407       .  A
C1131      C1136   1.409       .  A
C1132      C1133   1.406       .  A
C1132     Br1143   1.932       .  S
C1133      C1134   1.411       .  A
C1133     Br1139   1.923       .  S
C1134      C1135   1.408       .  A
C1135      C1136   1.407       .  A
C1135     Br1144   1.929       .  S
C1136     Br1140   1.928       .  S
C1145      C1146   1.416       .  A
C1145      C1150   1.416       .  A
C1146      C1147   1.416       .  A
C1146     Br1158   1.931       .  S
C1147      C1148   1.412       .  A
C1147     Br1162   1.929       .  S
C1148      C1151   1.502       .  S
C1148      C1149   1.409       .  A
C1149      C1150   1.414       .  A
C1149     Br1157   1.929       .  S
C1150     Br1161   1.928       .  S
C1151      C1152   1.412       .  A
C1151      C1156   1.412       .  A
C1152      C1153   1.413       .  A
C1152     Br1163   1.929       .  S
C1153      C1154   1.412       .  A
C1153     Br1159   1.929       .  S
C1154      C1155   1.413       .  A
C1155      C1156   1.415       .  A
C1155     Br1164   1.926       .  S
C1156     Br1160   1.928       .  S
C1165      C1166   1.417       .  A
C1165      C1170   1.415       .  A
C1166      C1167   1.410       .  A
C1166     Br1178   1.929       .  S
C1167      C1168   1.408       .  A
C1167     Br1182   1.932       .  S
C1168      C1171   1.493       .  S
C1168      C1169   1.410       .  A
C1169      C1170   1.412       .  A
C1169     Br1177   1.929       .  S
C1170     Br1181   1.931       .  S
C1171      C1172   1.409       .  A
C1171      C1176   1.411       .  A
C1172      C1173   1.409       .  A
C1172     Br1183   1.933       .  S
C1173      C1174   1.415       .  A
C1173     Br1179   1.928       .  S
C1174      C1175   1.414       .  A
C1175      C1176   1.414       .  A
C1175     Br1184   1.930       .  S
C1176     Br1180   1.928       .  S
C1185      C1186   1.417       .  A
C1185      C1190   1.415       .  A
C1186      C1187   1.412       .  A
C1186     Br1198   1.928       .  S
C1187      C1188   1.411       .  A
C1187     Br1202   1.932       .  S
C1188      C1191   1.499       .  S
C1188      C1189   1.411       .  A
C1189      C1190   1.413       .  A
C1189     Br1197   1.929       .  S
C1190     Br1201   1.931       .  S
C1191      C1192   1.413       .  A
C1191      C1196   1.414       .  A
C1192      C1193   1.411       .  A
C1192     Br1203   1.931       .  S
C1193      C1194   1.410       .  A
C1193     Br1199   1.929       .  S
C1194      C1195   1.409       .  A
C1195      C1196   1.413       .  A
C1195     Br1204   1.929       .  S
C1196     Br1200   1.928       .  S
C1205      C1206   1.410       .  A
C1205      C1210   1.410       .  A
C1206      C1207   1.406       .  A
C1206     Br1218   1.929       .  S
C1207      C1208   1.409       .  A
C1207     Br1222   1.931       .  S
C1208      C1211   1.481       .  S
C1208      C1209   1.408       .  A
C1209      C1210   1.405       .  A
C1209     Br1217   1.928       .  S
C1210     Br1221   1.932       .  S
C1211      C1212   1.408       .  A
C1211      C1216   1.406       .  A
C1212      C1213   1.408       .  A
C1212     Br1223   1.933       .  S
C1213      C1214   1.416       .  A
C1213     Br1219   1.929       .  S
C1214      C1215   1.414       .  A
C1215      C1216   1.406       .  A
C1215     Br1224   1.931       .  S
C1216     Br1220   1.929       .  S
C1225      C1226   1.415       .  A
C1225      C1230   1.415       .  A
C1226      C1227   1.413       .  A
C1226     Br1238   1.931       .  S
C1227      C1228   1.410       .  A
C1227     Br1242   1.929       .  S
C1228      C1231   1.490       .  S
C1228      C1229   1.407       .  A
C1229      C1230   1.408       .  A
C1229     Br1237   1.931       .  S
C1230     Br1241   1.932       .  S
C1231      C1232   1.409       .  A
C1231      C1236   1.409       .  A
C1232      C1233   1.410       .  A
C1232     Br1243   1.927       .  S
C1233      C1234   1.412       .  A
C1233     Br1239   1.928       .  S
C1234      C1235   1.415       .  A
C1235      C1236   1.409       .  A
C1235     Br1244   1.929       .  S
C1236     Br1240   1.931       .  S
C1245      C1246   1.417       .  A
C1245      C1250   1.417       .  A
C1246      C1247   1.407       .  A
C1246     Br1258   1.934       .  S
C1247      C1248   1.406       .  A
C1247     Br1262   1.930       .  S
C1248      C1251   1.478       .  S
C1248      C1249   1.406       .  A
C1249      C1250   1.404       .  A
C1249     Br1257   1.933       .  S
C1250     Br1261   1.934       .  S
C1251      C1252   1.407       .  A
C1251      C1256   1.408       .  A
C1252      C1253   1.405       .  A
C1252     Br1263   1.930       .  S
C1253      C1254   1.410       .  A
C1253     Br1259   1.929       .  S
C1254      C1255   1.412       .  A
C1255      C1256   1.406       .  A
C1255     Br1264   1.931       .  S
C1256     Br1260   1.931       .  S
C1265      C1266   1.428       .  A
C1265      C1270   1.430       .  A
C1266      C1267   1.414       .  A
C1266     Br1278   1.936       .  S
C1267      C1268   1.407       .  A
C1267     Br1282   1.934       .  S
C1268      C1271   1.499       .  S
C1268      C1269   1.407       .  A
C1269      C1270   1.416       .  A
C1269     Br1277   1.933       .  S
C1270     Br1281   1.935       .  S
C1271      C1272   1.410       .  A
C1271      C1276   1.412       .  A
C1272      C1273   1.411       .  A
C1272     Br1283   1.931       .  S
C1273      C1274   1.415       .  A
C1273     Br1279   1.931       .  S
C1274      C1275   1.412       .  A
C1275      C1276   1.413       .  A
C1275     Br1284   1.929       .  S
C1276     Br1280   1.927       .  S
C1285      C1286   1.412       .  A
C1285      C1290   1.413       .  A
C1286      C1287   1.410       .  A
C1286     Br1298   1.930       .  S
C1287      C1288   1.410       .  A
C1287     Br1302   1.930       .  S
C1288      C1291   1.490   1_545  S
C1288      C1289   1.409       .  A
C1289      C1290   1.409       .  A
C1289     Br1297   1.929       .  S
C1290     Br1301   1.929       .  S
C1291      C1292   1.408       .  A
C1291      C1296   1.408       .  A
C1292      C1293   1.409       .  A
C1292     Br1303   1.933   1_565  S
C1293      C1294   1.418       .  A
C1293     Br1299   1.932       .  S
C1294      C1295   1.415       .  A
C1295      C1296   1.412       .  A
C1295     Br1304   1.926       .  S
C1296     Br1300   1.929       .  S
C1305      C1306   1.416       .  A
C1305      C1310   1.420       .  A
C1306      C1307   1.409       .  A
C1306     Br1318   1.932       .  S
C1307      C1308   1.408       .  A
C1307     Br1322   1.929       .  S
C1308      C1311   1.484       .  S
C1308      C1309   1.405       .  A
C1309      C1310   1.406       .  A
C1309     Br1317   1.934       .  S
C1310     Br1321   1.929       .  S
C1311      C1312   1.404       .  A
C1311      C1316   1.406       .  A
C1312      C1313   1.407       .  A
C1312     Br1323   1.933       .  S
C1313      C1314   1.422       .  A
C1313     Br1319   1.934       .  S
C1314      C1315   1.421       .  A
C1315      C1316   1.410       .  A
C1315     Br1324   1.934       .  S
C1316     Br1320   1.933       .  S
C1325      C1326   1.413       .  A
C1325      C1330   1.413       .  A
C1326      C1327   1.411       .  A
C1326     Br1338   1.927       .  S
C1327      C1328   1.409       .  A
C1327     Br1342   1.929       .  S
C1328      C1331   1.492       .  S
C1328      C1329   1.410       .  A
C1329      C1330   1.411       .  A
C1329     Br1337   1.929       .  S
C1330     Br1341   1.929       .  S
C1331      C1332   1.411       .  A
C1331      C1336   1.411       .  A
C1332      C1333   1.412       .  A
C1332     Br1343   1.928       .  S
C1333      C1334   1.411       .  A
C1333     Br1339   1.929       .  S
C1334      C1335   1.411       .  A
C1335      C1336   1.409       .  A
C1335     Br1344   1.931       .  S
C1336     Br1340   1.929       .  S
C1345      C1346   1.421       .  A
C1345      C1350   1.422       .  A
C1346      C1347   1.412       .  A
C1346     Br1358   1.933       .  S
C1347      C1348   1.407       .  A
C1347     Br1362   1.931       .  S
C1348      C1351   1.490   1_655  S
C1348      C1349   1.406       .  A
C1349      C1350   1.411       .  A
C1349     Br1357   1.932       .  S
C1350     Br1361   1.931       .  S
C1351      C1352   1.408       .  A
C1351      C1356   1.411       .  A
C1352      C1353   1.406       .  A
C1352     Br1363   1.935       .  S
C1353      C1354   1.412       .  A
C1353     Br1359   1.922       .  S
C1354      C1355   1.412       .  A
C1355      C1356   1.414       .  A
C1355     Br1364   1.930       .  S
C1356     Br1360   1.926       .  S
C1365      C1366   1.414       .  A
C1365      C1370   1.418       .  A
C1366      C1367   1.406       .  A
C1366     Br1378   1.932       .  S
C1367      C1368   1.407       .  A
C1367     Br1382   1.930       .  S
C1368      C1371   1.484       .  S
C1368      C1369   1.407       .  A
C1369      C1370   1.409       .  A
C1369     Br1377   1.932       .  S
C1370     Br1381   1.929       .  S
C1371      C1372   1.408       .  A
C1371      C1376   1.409       .  A
C1372      C1373   1.408       .  A
C1372     Br1383   1.929       .  S
C1373      C1374   1.412       .  A
C1373     Br1379   1.931       .  S
C1374      C1375   1.411       .  A
C1375      C1376   1.406       .  A
C1375     Br1384   1.931       .  S
C1376     Br1380   1.931       .  S
C1385      C1386   1.415       .  A
C1385      C1390   1.416       .  A
C1386      C1387   1.411       .  A
C1386     Br1398   1.930       .  S
C1387      C1388   1.408       .  A
C1387     Br1402   1.929       .  S
C1388      C1391   1.485       .  S
C1388      C1389   1.405       .  A
C1389      C1390   1.406       .  A
C1389     Br1397   1.934       .  S
C1390     Br1401   1.924       .  S
C1391      C1392   1.407       .  A
C1391      C1396   1.406       .  A
C1392      C1393   1.410       .  A
C1392     Br1403   1.930       .  S
C1393      C1394   1.418       .  A
C1393     Br1399   1.932       .  S
C1394      C1395   1.418       .  A
C1395      C1396   1.407       .  A
C1395     Br1404   1.931       .  S
C1396     Br1400   1.933       .  S
C1405      C1406   1.415       .  A
C1405      C1410   1.420       .  A
C1406      C1407   1.412       .  A
C1406     Br1418   1.930       .  S
C1407      C1408   1.409       .  A
C1407     Br1422   1.929       .  S
C1408      C1411   1.488   1_455  S
C1408      C1409   1.406       .  A
C1409      C1410   1.408       .  A
C1409     Br1417   1.934       .  S
C1410     Br1421   1.930       .  S
C1411      C1412   1.411       .  A
C1411      C1416   1.410       .  A
C1412      C1413   1.410       .  A
C1412     Br1423   1.928       .  S
C1413      C1414   1.409       .  A
C1413     Br1419   1.930       .  S
C1414      C1415   1.408       .  A
C1415      C1416   1.406       .  A
C1415     Br1424   1.930       .  S
C1416     Br1420   1.930       .  S
C1425      C1426   1.412       .  A
C1425      C1430   1.412       .  A
C1426      C1427   1.408       .  A
C1426     Br1438   1.930       .  S
C1427      C1428   1.409       .  A
C1427     Br1442   1.931   1_565  S
C1428      C1431   1.490   1_565  S
C1428      C1429   1.410       .  A
C1429      C1430   1.412       .  A
C1429     Br1437   1.928       .  S
C1430     Br1441   1.929       .  S
C1431      C1432   1.409       .  A
C1431      C1436   1.410       .  A
C1432      C1433   1.408       .  A
C1432     Br1443   1.930       .  S
C1433      C1434   1.411       .  A
C1433     Br1439   1.930       .  S
C1434      C1435   1.413       .  A
C1435      C1436   1.411       .  A
C1435     Br1444   1.930       .  S
C1436     Br1440   1.929       .  S
C1445      C1446   1.415       .  A
C1445      C1450   1.415       .  A
C1446      C1447   1.405       .  A
C1446     Br1458   1.925       .  S
C1447      C1448   1.405       .  A
C1447     Br1462   1.934       .  S
C1448      C1451   1.483       .  S
C1448      C1449   1.408       .  A
C1449      C1450   1.409       .  A
C1449     Br1457   1.929       .  S
C1450     Br1461   1.932       .  S
C1451      C1452   1.406       .  A
C1451      C1456   1.408       .  A
C1452      C1453   1.407       .  A
C1452     Br1463   1.932       .  S
C1453      C1454   1.415       .  A
C1453     Br1459   1.926       .  S
C1454      C1455   1.412       .  A
C1455      C1456   1.408       .  A
C1455     Br1464   1.930       .  S
C1456     Br1460   1.930       .  S
C1465      C1466   1.415       .  A
C1465      C1470   1.418       .  A
C1466      C1467   1.409       .  A
C1466     Br1478   1.933       .  S
C1467      C1468   1.407       .  A
C1467     Br1482   1.929       .  S
C1468      C1471   1.483       .  S
C1468      C1469   1.407       .  A
C1469      C1470   1.406       .  A
C1469     Br1477   1.934       .  S
C1470     Br1481   1.934       .  S
C1471      C1472   1.407       .  A
C1471      C1476   1.406       .  A
C1472      C1473   1.407       .  A
C1472     Br1483   1.929       .  S
C1473      C1474   1.413       .  A
C1473     Br1479   1.930       .  S
C1474      C1475   1.416       .  A
C1475      C1476   1.407       .  A
C1475     Br1484   1.927       .  S
C1476     Br1480   1.933       .  S
C1485      C1486   1.420       .  A
C1485      C1490   1.419       .  A
C1486      C1487   1.415       .  A
C1486     Br1498   1.931       .  S
C1487      C1488   1.410       .  A
C1487     Br1502   1.931       .  S
C1488      C1491   1.499       .  S
C1488      C1489   1.409       .  A
C1489      C1490   1.413       .  A
C1489     Br1497   1.930       .  S
C1490     Br1501   1.932       .  S
C1491      C1492   1.413       .  A
C1491      C1496   1.413       .  A
C1492      C1493   1.413       .  A
C1492     Br1503   1.931       .  S
C1493      C1494   1.412       .  A
C1493     Br1499   1.929       .  S
C1494      C1495   1.408       .  A
C1495      C1496   1.412       .  A
C1495     Br1504   1.929       .  S
C1496     Br1500   1.927       .  S
C1505      C1506   1.415       .  A
C1505      C1510   1.416       .  A
C1506      C1507   1.407       .  A
C1506     Br1518   1.927       .  S
C1507      C1508   1.405       .  A
C1507     Br1522   1.931       .  S
C1508      C1511   1.482   1_554  S
C1508      C1509   1.407       .  A
C1509      C1510   1.407       .  A
C1509     Br1517   1.930       .  S
C1510     Br1521   1.932       .  S
C1511      C1512   1.408       .  A
C1511      C1516   1.410       .  A
C1512      C1513   1.407       .  A
C1512     Br1523   1.927       .  S
C1513      C1514   1.409       .  A
C1513     Br1519   1.928       .  S
C1514      C1515   1.409       .  A
C1515      C1516   1.406       .  A
C1515     Br1524   1.930       .  S
C1516     Br1520   1.932       .  S
C1525      C1526   1.416       .  A
C1525      C1530   1.413       .  A
C1526      C1527   1.410       .  A
C1526     Br1538   1.928       .  S
C1527      C1528   1.407       .  A
C1527     Br1542   1.929       .  S
C1528      C1531   1.491   1_556  S
C1528      C1529   1.410       .  A
C1529      C1530   1.411       .  A
C1529     Br1537   1.930       .  S
C1530     Br1541   1.930       .  S
C1531      C1532   1.411       .  A
C1531      C1536   1.410       .  A
C1532      C1533   1.411       .  A
C1532     Br1543   1.927       .  S
C1533      C1534   1.410       .  A
C1533     Br1539   1.929       .  S
C1534      C1535   1.409       .  A
C1535      C1536   1.409       .  A
C1535     Br1544   1.929       .  S
C1536     Br1540   1.930   1_554  S
C1545      C1546   1.410       .  A
C1545      C1550   1.412       .  A
C1546      C1547   1.408       .  A
C1546     Br1558   1.930       .  S
C1547      C1548   1.409       .  A
C1547     Br1562   1.928       .  S
C1548      C1551   1.486       .  S
C1548      C1549   1.409       .  A
C1549      C1550   1.409       .  A
C1549     Br1557   1.932       .  S
C1550     Br1561   1.925       .  S
C1551      C1552   1.408       .  A
C1551      C1556   1.407       .  A
C1552      C1553   1.410       .  A
C1552     Br1563   1.929       .  S
C1553      C1554   1.415       .  A
C1553     Br1559   1.932       .  S
C1554      C1555   1.416       .  A
C1555      C1556   1.408       .  A
C1555     Br1564   1.927       .  S
C1556     Br1560   1.933       .  S
C1565      C1566   1.413       .  A
C1565      C1570   1.412       .  A
C1566      C1567   1.411       .  A
C1566     Br1578   1.930       .  S
C1567      C1568   1.409       .  A
C1567     Br1582   1.928       .  S
C1568      C1571   1.492       .  S
C1568      C1569   1.411       .  A
C1569      C1570   1.410       .  A
C1569     Br1577   1.930       .  S
C1570     Br1581   1.931       .  S
C1571      C1572   1.410       .  A
C1571      C1576   1.410       .  A
C1572      C1573   1.412       .  A
C1572     Br1583   1.928       .  S
C1573      C1574   1.413       .  A
C1573     Br1579   1.930       .  S
C1574      C1575   1.411       .  A
C1575      C1576   1.409       .  A
C1575     Br1584   1.930       .  S
C1576     Br1580   1.930       .  S
C1585      C1586   1.416       .  A
C1585      C1590   1.417       .  A
C1586      C1587   1.406       .  A
C1586     Br1598   1.933       .  S
C1587      C1588   1.406       .  A
C1587     Br1602   1.932       .  S
C1588      C1591   1.480       .  S
C1588      C1589   1.406       .  A
C1589      C1590   1.407       .  A
C1589     Br1597   1.932       .  S
C1590     Br1601   1.930       .  S
C1591      C1592   1.408       .  A
C1591      C1596   1.408       .  A
C1592      C1593   1.406       .  A
C1592     Br1603   1.929       .  S
C1593      C1594   1.411       .  A
C1593     Br1599   1.931       .  S
C1594      C1595   1.411       .  A
C1595      C1596   1.405       .  A
C1595     Br1604   1.928       .  S
C1596     Br1600   1.932       .  S
C1605      C1606   1.411       .  A
C1605      C1610   1.412       .  A
C1606      C1607   1.405       .  A
C1606     Br1618   1.929       .  S
C1607      C1608   1.408       .  A
C1607     Br1622   1.932       .  S
C1608      C1611   1.481       .  S
C1608      C1609   1.408       .  A
C1609      C1610   1.408       .  A
C1609     Br1617   1.929       .  S
C1610     Br1621   1.931       .  S
C1611      C1612   1.405       .  A
C1611      C1616   1.407       .  A
C1612      C1613   1.406       .  A
C1612     Br1623   1.933       .  S
C1613      C1614   1.416       .  A
C1613     Br1619   1.925       .  S
C1614      C1615   1.413       .  A
C1615      C1616   1.408       .  A
C1615     Br1624   1.929       .  S
C1616     Br1620   1.929       .  S
C1625      C1626   1.414       .  A
C1625      C1630   1.414       .  A
C1626      C1627   1.409       .  A
C1626     Br1638   1.930       .  S
C1627      C1628   1.409       .  A
C1627     Br1642   1.931       .  S
C1628      C1631   1.489       .  S
C1628      C1629   1.409       .  A
C1629      C1630   1.411       .  A
C1629     Br1637   1.929       .  S
C1630     Br1641   1.930       .  S
C1631      C1632   1.410       .  A
C1631      C1636   1.410       .  A
C1632      C1633   1.408       .  A
C1632     Br1643   1.930       .  S
C1633      C1634   1.410       .  A
C1633     Br1639   1.930       .  S
C1634      C1635   1.408       .  A
C1635      C1636   1.410       .  A
C1635     Br1644   1.927       .  S
C1636     Br1640   1.928       .  S
C1645      C1646   1.413       .  A
C1645      C1650   1.415       .  A
C1646      C1647   1.410       .  A
C1646     Br1658   1.930       .  S
C1647      C1648   1.410       .  A
C1647     Br1662   1.929       .  S
C1648      C1651   1.490       .  S
C1648      C1649   1.408       .  A
C1649      C1650   1.409       .  A
C1649     Br1657   1.932       .  S
C1650     Br1661   1.926       .  S
C1651      C1652   1.410       .  A
C1651      C1656   1.409       .  A
C1652      C1653   1.411       .  A
C1652     Br1663   1.929       .  S
C1653      C1654   1.414       .  A
C1653     Br1659   1.931       .  S
C1654      C1655   1.413       .  A
C1655      C1656   1.408       .  A
C1655     Br1664   1.926       .  S
C1656     Br1660   1.933       .  S
C1665      C1666   1.419       .  A
C1665      C1670   1.420       .  A
C1666      C1667   1.411       .  A
C1666     Br1678   1.931       .  S
C1667      C1668   1.408       .  A
C1667     Br1682   1.932       .  S
C1668      C1671   1.490       .  S
C1668      C1669   1.406       .  A
C1669      C1670   1.410       .  A
C1669     Br1677   1.931       .  S
C1670     Br1681   1.933       .  S
C1671      C1672   1.410       .  A
C1671      C1676   1.410       .  A
C1672      C1673   1.409       .  A
C1672     Br1683   1.931       .  S
C1673      C1674   1.412       .  A
C1673     Br1679   1.928       .  S
C1674      C1675   1.409       .  A
C1675      C1676   1.410       .  A
C1675     Br1684   1.929       .  S
C1676     Br1680   1.927       .  S
C1685      C1686   1.416       .  A
C1685      C1690   1.414       .  A
C1686      C1687   1.411       .  A
C1686     Br1698   1.928       .  S
C1687      C1688   1.410       .  A
C1687     Br1702   1.933       .  S
C1688      C1691   1.494       .  S
C1688      C1689   1.410       .  A
C1689      C1690   1.412       .  A
C1689     Br1697   1.929       .  S
C1690     Br1701   1.930       .  S
C1691      C1692   1.412       .  A
C1691      C1696   1.413       .  A
C1692      C1693   1.409       .  A
C1692     Br1703   1.930       .  S
C1693      C1694   1.409       .  A
C1693     Br1699   1.927       .  S
C1694      C1695   1.409       .  A
C1695      C1696   1.411       .  A
C1695     Br1704   1.931       .  S
C1696     Br1700   1.928       .  S
C1705      C1706   1.408       .  A
C1705      C1710   1.410       .  A
C1706      C1707   1.409       .  A
C1706     Br1718   1.928       .  S
C1707      C1708   1.411       .  A
C1707     Br1722   1.927       .  S
C1708      C1711   1.490       .  S
C1708      C1709   1.411       .  A
C1709      C1710   1.409       .  A
C1709     Br1717   1.930       .  S
C1710     Br1721   1.931       .  S
C1711      C1712   1.407       .  A
C1711      C1716   1.408       .  A
C1712      C1713   1.410       .  A
C1712     Br1723   1.930       .  S
C1713      C1714   1.418       .  A
C1713     Br1719   1.931       .  S
C1714      C1715   1.418       .  A
C1715      C1716   1.410       .  A
C1715     Br1724   1.931       .  S
C1716     Br1720   1.932       .  S
C1725      C1726   1.418       .  A
C1725      C1730   1.414       .  A
C1726      C1727   1.408       .  A
C1726     Br1738   1.932       .  S
C1727      C1728   1.407       .  A
C1727     Br1742   1.933       .  S
C1728      C1731   1.483       .  S
C1728      C1729   1.406       .  A
C1729      C1730   1.407       .  A
C1729     Br1737   1.929       .  S
C1730     Br1741   1.929       .  S
C1731      C1732   1.409       .  A
C1731      C1736   1.409       .  A
C1732      C1733   1.405       .  A
C1732     Br1743   1.931       .  S
C1733      C1734   1.409       .  A
C1733     Br1739   1.928       .  S
C1734      C1735   1.408       .  A
C1735      C1736   1.408       .  A
C1735     Br1744   1.928       .  S
C1736     Br1740   1.928       .  S
C1745      C1746   1.418       .  A
C1745      C1750   1.420       .  A
C1746      C1747   1.409       .  A
C1746     Br1758   1.929       .  S
C1747      C1748   1.406       .  A
C1747     Br1762   1.930       .  S
C1748      C1751   1.489       .  S
C1748      C1749   1.408       .  A
C1749      C1750   1.411       .  A
C1749     Br1757   1.932       .  S
C1750     Br1761   1.932       .  S
C1751      C1752   1.411       .  A
C1751      C1756   1.410       .  A
C1752      C1753   1.410       .  A
C1752     Br1763   1.927       .  S
C1753      C1754   1.408       .  A
C1753     Br1759   1.928       .  S
C1754      C1755   1.410       .  A
C1755      C1756   1.408       .  A
C1755     Br1764   1.929       .  S
C1756     Br1760   1.930       .  S
C1765      C1766   1.416       .  A
C1765      C1770   1.411       .  A
C1766      C1767   1.412       .  A
C1766     Br1778   1.930       .  S
C1767      C1768   1.410       .  A
C1767     Br1782   1.932       .  S
C1768      C1771   1.493   1_556  S
C1768      C1769   1.410       .  A
C1769      C1770   1.411       .  A
C1769     Br1777   1.928       .  S
C1770     Br1781   1.927       .  S
C1771      C1772   1.408       .  A
C1771      C1776   1.410       .  A
C1772      C1773   1.410       .  A
C1772     Br1783   1.930       .  S
C1773      C1774   1.416       .  A
C1773     Br1779   1.929       .  S
C1774      C1775   1.416       .  A
C1775      C1776   1.411       .  A
C1775     Br1784   1.932       .  S
C1776     Br1780   1.929       .  S
C1785      C1786   1.421       .  A
C1785      C1790   1.418       .  A
C1786      C1787   1.412       .  A
C1786     Br1798   1.932       .  S
C1787      C1788   1.408       .  A
C1787     Br1802   1.932       .  S
C1788      C1791   1.493       .  S
C1788      C1789   1.407       .  A
C1789      C1790   1.411       .  A
C1789     Br1797   1.931       .  S
C1790     Br1801   1.927       .  S
C1791      C1792   1.407       .  A
C1791      C1796   1.407       .  A
C1792      C1793   1.411       .  A
C1792     Br1803   1.930       .  S
C1793      C1794   1.420       .  A
C1793     Br1799   1.933       .  S
C1794      C1795   1.423       .  A
C1795      C1796   1.412       .  A
C1795     Br1804   1.931       .  S
C1796     Br1800   1.933       .  S
C1805      C1806   1.408       .  A
C1805      C1810   1.408       .  A
C1806      C1807   1.406       .  A
C1806     Br1818   1.931       .  S
C1807      C1808   1.411       .  A
C1807     Br1822   1.931       .  S
C1808      C1811   1.486   1_545  S
C1808      C1809   1.411       .  A
C1809      C1810   1.407       .  A
C1809     Br1817   1.929       .  S
C1810     Br1821   1.930       .  S
C1811      C1812   1.408       .  A
C1811      C1816   1.406       .  A
C1812      C1813   1.409       .  A
C1812     Br1823   1.933       .  S
C1813      C1814   1.419       .  A
C1813     Br1819   1.932       .  S
C1814      C1815   1.420       .  A
C1815      C1816   1.408       .  A
C1815     Br1824   1.932       .  S
C1816     Br1820   1.933       .  S
C1825      C1826   1.420       .  A
C1825      C1830   1.413       .  A
C1826      C1827   1.410       .  A
C1826     Br1838   1.933       .  S
C1827      C1828   1.407       .  A
C1827     Br1842   1.933       .  S
C1828      C1831   1.492   1_556  S
C1828      C1829   1.409       .  A
C1829      C1830   1.412       .  A
C1829     Br1837   1.929       .  S
C1830     Br1841   1.926       .  S
C1831      C1832   1.409       .  A
C1831      C1836   1.409       .  A
C1832      C1833   1.410       .  A
C1832     Br1843   1.930       .  S
C1833      C1834   1.413       .  A
C1833     Br1839   1.928       .  S
C1834      C1835   1.416       .  A
C1835      C1836   1.411       .  A
C1835     Br1844   1.932       .  S
C1836     Br1840   1.930       .  S
C1845      C1846   1.426       .  A
C1845      C1850   1.426       .  A
C1846      C1847   1.409       .  A
C1846     Br1858   1.935       .  S
C1847      C1848   1.404       .  A
C1847     Br1862   1.933       .  S
C1848      C1851   1.483       .  S
C1848      C1849   1.403       .  A
C1849      C1850   1.408       .  A
C1849     Br1857   1.934       .  S
C1850     Br1861   1.935       .  S
C1851      C1852   1.409       .  A
C1851      C1856   1.409       .  A
C1852      C1853   1.407       .  A
C1852     Br1863   1.929       .  S
C1853      C1854   1.410       .  A
C1853     Br1859   1.927       .  S
C1854      C1855   1.411       .  A
C1855      C1856   1.406       .  A
C1855     Br1864   1.934       .  S
C1856     Br1860   1.930       .  S
C1865      C1866   1.422       .  A
C1865      C1870   1.424       .  A
C1866      C1867   1.405       .  A
C1866     Br1878   1.936       .  S
C1867      C1868   1.404       .  A
C1867     Br1882   1.935       .  S
C1868      C1871   1.478       .  S
C1868      C1869   1.403       .  A
C1869      C1870   1.406       .  A
C1869     Br1877   1.933       .  S
C1870     Br1881   1.936       .  S
C1871      C1872   1.403       .  A
C1871      C1876   1.404       .  A
C1872      C1873   1.406       .  A
C1872     Br1883   1.934       .  S
C1873      C1874   1.425       .  A
C1873     Br1879   1.936       .  S
C1874      C1875   1.422       .  A
C1875      C1876   1.406       .  A
C1875     Br1884   1.935       .  S
C1876     Br1880   1.934       .  S
C1885      C1886   1.412       .  A
C1885      C1890   1.409       .  A
C1886      C1887   1.405       .  A
C1886     Br1898   1.931       .  S
C1887      C1888   1.409       .  A
C1887     Br1902   1.931       .  S
C1888      C1891   1.485       .  S
C1888      C1889   1.410       .  A
C1889      C1890   1.408       .  A
C1889     Br1897   1.929       .  S
C1890     Br1901   1.929       .  S
C1891      C1892   1.407       .  A
C1891      C1896   1.407       .  A
C1892      C1893   1.407       .  A
C1892     Br1903   1.933       .  S
C1893      C1894   1.418       .  A
C1893     Br1899   1.932       .  S
C1894      C1895   1.418       .  A
C1895      C1896   1.409       .  A
C1895     Br1904   1.930       .  S
C1896     Br1900   1.932       .  S
C1905      C1906   1.416       .  A
C1905      C1910   1.418       .  A
C1906      C1907   1.413       .  A
C1906     Br1918   1.929       .  S
C1907      C1908   1.409       .  A
C1907     Br1922   1.929       .  S
C1908      C1911   1.495   1_565  S
C1908      C1909   1.409       .  A
C1909      C1910   1.412       .  A
C1909     Br1917   1.932       .  S
C1910     Br1921   1.930       .  S
C1911      C1912   1.412       .  A
C1911      C1916   1.410       .  A
C1912      C1913   1.413       .  A
C1912     Br1923   1.926       .  S
C1913      C1914   1.409       .  A
C1913     Br1919   1.929       .  S
C1914      C1915   1.411       .  A
C1915      C1916   1.409       .  A
C1915     Br1924   1.930       .  S
C1916     Br1920   1.930       .  S
C1925      C1926   1.411       .  A
C1925      C1930   1.413       .  A
C1926      C1927   1.412       .  A
C1926     Br1938   1.923       .  S
C1927      C1928   1.410       .  A
C1927     Br1942   1.929       .  S
C1928      C1931   1.496       .  S
C1928      C1929   1.410       .  A
C1929      C1930   1.411       .  A
C1929     Br1937   1.930       .  S
C1930     Br1941   1.930       .  S
C1931      C1932   1.404       .  A
C1931      C1936   1.405       .  A
C1932      C1933   1.413       .  A
C1932     Br1943   1.934       .  S
C1933      C1934   1.430       .  A
C1933     Br1939   1.937       .  S
C1934      C1935   1.431       .  A
C1935      C1936   1.415       .  A
C1935     Br1944   1.937       .  S
C1936     Br1940   1.933       .  S
C1945      C1946   1.429       .  A
C1945      C1950   1.434       .  A
C1946      C1947   1.412       .  A
C1946     Br1958   1.934       .  S
C1947      C1948   1.404       .  A
C1947     Br1962   1.934       .  S
C1948      C1951   1.489       .  S
C1948      C1949   1.402       .  A
C1949      C1950   1.410       .  A
C1949     Br1957   1.937       .  S
C1950     Br1961   1.940       .  S
C1951      C1952   1.406       .  A
C1951      C1956   1.408       .  A
C1952      C1953   1.408       .  A
C1952     Br1963   1.934       .  S
C1953      C1954   1.419       .  A
C1953     Br1959   1.931       .  S
C1954      C1955   1.418       .  A
C1955      C1956   1.411       .  A
C1955     Br1964   1.929       .  S
C1956     Br1960   1.931       .  S
C1965      C1966   1.430       .  A
C1965      C1970   1.429       .  A
C1966      C1967   1.410       .  A
C1966     Br1978   1.935       .  S
C1967      C1968   1.403       .  A
C1967     Br1982   1.934       .  S
C1968      C1971   1.485       .  S
C1968      C1969   1.403       .  A
C1969      C1970   1.408       .  A
C1969     Br1977   1.936       .  S
C1970     Br1981   1.939       .  S
C1971      C1972   1.408       .  A
C1971      C1976   1.408       .  A
C1972      C1973   1.409       .  A
C1972     Br1983   1.933       .  S
C1973      C1974   1.417       .  A
C1973     Br1979   1.933       .  S
C1974      C1975   1.414       .  A
C1975      C1976   1.407       .  A
C1975     Br1984   1.931       .  S
C1976     Br1980   1.931       .  S
C1985      C1986   1.415       .  A
C1985      C1990   1.415       .  A
C1986      C1987   1.412       .  A
C1986     Br1998   1.931       .  S
C1987      C1988   1.410       .  A
C1987     Br2002   1.930       .  S
C1988      C1991   1.495       .  S
C1988      C1989   1.410       .  A
C1989      C1990   1.411       .  A
C1989     Br1997   1.930       .  S
C1990     Br2001   1.931       .  S
C1991      C1992   1.411       .  A
C1991      C1996   1.412       .  A
C1992      C1993   1.409       .  A
C1992     Br2003   1.930       .  S
C1993      C1994   1.410       .  A
C1993     Br1999   1.929       .  S
C1994      C1995   1.410       .  A
C1995      C1996   1.414       .  A
C1995     Br2004   1.928       .  S
C1996     Br2000   1.928       .  S
C2005      C2006   1.419       .  A
C2005      C2010   1.420       .  A
C2006      C2007   1.412       .  A
C2006     Br2018   1.930       .  S
C2007      C2008   1.409       .  A
C2007     Br2022   1.932       .  S
C2008      C2011   1.494       .  S
C2008      C2009   1.408       .  A
C2009      C2010   1.411       .  A
C2009     Br2017   1.932       .  S
C2010     Br2021   1.932       .  S
C2011      C2012   1.411       .  A
C2011      C2016   1.412       .  A
C2012      C2013   1.409       .  A
C2012     Br2023   1.930       .  S
C2013      C2014   1.410       .  A
C2013     Br2019   1.930       .  S
C2014      C2015   1.411       .  A
C2015      C2016   1.411       .  A
C2015     Br2024   1.930       .  S
C2016     Br2020   1.929       .  S
C2025      C2026   1.411       .  A
C2025      C2030   1.411       .  A
C2026      C2027   1.407       .  A
C2026     Br2038   1.931       .  S
C2027      C2028   1.409       .  A
C2027     Br2042   1.930       .  S
C2028      C2031   1.486       .  S
C2028      C2029   1.409       .  A
C2029      C2030   1.409       .  A
C2029     Br2037   1.928       .  S
C2030     Br2041   1.928       .  S
C2031      C2032   1.408       .  A
C2031      C2036   1.409       .  A
C2032      C2033   1.406       .  A
C2032     Br2043   1.931       .  S
C2033      C2034   1.412       .  A
C2033     Br2039   1.931       .  S
C2034      C2035   1.412       .  A
C2035      C2036   1.410       .  A
C2035     Br2044   1.927       .  S
C2036     Br2040   1.929       .  S
C2045      C2046   1.408       .  A
C2045      C2050   1.408       .  A
C2046      C2047   1.406       .  A
C2046     Br2058   1.930       .  S
C2047      C2048   1.410       .  A
C2047     Br2062   1.930       .  S
C2048      C2051   1.485   1_556  S
C2048      C2049   1.410       .  A
C2049      C2050   1.409       .  A
C2049     Br2057   1.928       .  S
C2050     Br2061   1.929       .  S
C2051      C2052   1.408       .  A
C2051      C2056   1.406       .  A
C2052      C2053   1.409       .  A
C2052     Br2063   1.931       .  S
C2053      C2054   1.416       .  A
C2053     Br2059   1.932       .  S
C2054      C2055   1.416       .  A
C2055      C2056   1.407       .  A
C2055     Br2064   1.930       .  S
C2056     Br2060   1.931       .  S
C2065      C2066   1.412       .  A
C2065      C2070   1.411       .  A
C2066      C2067   1.408       .  A
C2066     Br2078   1.919       .  S
C2067      C2068   1.409       .  A
C2067     Br2082   1.932       .  S
C2068      C2071   1.493       .  S
C2068      C2069   1.411       .  A
C2069      C2070   1.413       .  A
C2069     Br2077   1.928       .  S
C2070     Br2081   1.928       .  S
C2071      C2072   1.409       .  A
C2071      C2076   1.408       .  A
C2072      C2073   1.413       .  A
C2072     Br2083   1.932       .  S
C2073      C2074   1.420       .  A
C2073     Br2079   1.930       .  S
C2074      C2075   1.415       .  A
C2075      C2076   1.410       .  A
C2075     Br2084   1.931       .  S
C2076     Br2080   1.930       .  S
C2085      C2086   1.411       .  A
C2085      C2090   1.411       .  A
C2086      C2087   1.412       .  A
C2086     Br2098   1.929       .  S
C2087      C2088   1.410       .  A
C2087     Br2102   1.928       .  S
C2088      C2091   1.493   1_655  S
C2088      C2089   1.411       .  A
C2089      C2090   1.410       .  A
C2089     Br2097   1.931   1_655  S
C2090     Br2101   1.929       .  S
C2091      C2092   1.408       .  A
C2091      C2096   1.409       .  A
C2092      C2093   1.411       .  A
C2092     Br2103   1.929       .  S
C2093      C2094   1.417       .  A
C2093     Br2099   1.931       .  S
C2094      C2095   1.417       .  A
C2095      C2096   1.411       .  A
C2095     Br2104   1.932       .  S
C2096     Br2100   1.930       .  S
C2105      C2106   1.413       .  A
C2105      C2110   1.413       .  A
C2106      C2107   1.413       .  A
C2106     Br2118   1.930       .  S
C2107      C2108   1.411       .  A
C2107     Br2122   1.928       .  S
C2108      C2111   1.490   1_556  S
C2108      C2109   1.408       .  A
C2109      C2110   1.406       .  A
C2109     Br2117   1.932       .  S
C2110     Br2121   1.931       .  S
C2111      C2112   1.411       .  A
C2111      C2116   1.409       .  A
C2112      C2113   1.412       .  A
C2112     Br2123   1.927       .  S
C2113      C2114   1.411       .  A
C2113     Br2119   1.928       .  S
C2114      C2115   1.412       .  A
C2115      C2116   1.407       .  A
C2115     Br2124   1.932       .  S
C2116     Br2120   1.931       .  S
C2125      C2126   1.411       .  A
C2125      C2130   1.408       .  A
C2126      C2127   1.408       .  A
C2126     Br2138   1.933       .  S
C2127      C2128   1.411       .  A
C2127     Br2142   1.929       .  S
C2128      C2131   1.494       .  S
C2128      C2129   1.413       .  A
C2129      C2130   1.411       .  A
C2129     Br2137   1.928       .  S
C2130     Br2141   1.928       .  S
C2131      C2132   1.408       .  A
C2131      C2136   1.407       .  A
C2132      C2133   1.412       .  A
C2132     Br2143   1.934       .  S
C2133      C2134   1.421       .  A
C2133     Br2139   1.931       .  S
C2134      C2135   1.423       .  A
C2135      C2136   1.413       .  A
C2135     Br2144   1.933       .  S
C2136     Br2140   1.932       .  S
C2145      C2146   1.414       .  A
C2145      C2150   1.410       .  A
C2146      C2147   1.409       .  A
C2146     Br2158   1.919       .  S
C2147      C2148   1.408       .  A
C2147     Br2162   1.933       .  S
C2148      C2151   1.494       .  S
C2148      C2149   1.411       .  A
C2149      C2150   1.414       .  A
C2149     Br2157   1.927       .  S
C2150     Br2161   1.928       .  S
C2151      C2152   1.409       .  A
C2151      C2156   1.410       .  A
C2152      C2153   1.410       .  A
C2152     Br2163   1.931       .  S
C2153      C2154   1.415       .  A
C2153     Br2159   1.927       .  S
C2154      C2155   1.415       .  A
C2155      C2156   1.413       .  A
C2155     Br2164   1.931       .  S
C2156     Br2160   1.929       .  S
C2165      C2166   1.410       .  A
C2165      C2170   1.411       .  A
C2166      C2167   1.407       .  A
C2166     Br2178   1.928       .  S
C2167      C2168   1.411       .  A
C2167     Br2182   1.931       .  S
C2168      C2171   1.488       .  S
C2168      C2169   1.410       .  A
C2169      C2170   1.409       .  A
C2169     Br2177   1.928       .  S
C2170     Br2181   1.931       .  S
C2171      C2172   1.408       .  A
C2171      C2176   1.408       .  A
C2172      C2173   1.409       .  A
C2172     Br2183   1.931       .  S
C2173      C2174   1.416       .  A
C2173     Br2179   1.930       .  S
C2174      C2175   1.414       .  A
C2175      C2176   1.409       .  A
C2175     Br2184   1.930       .  S
C2176     Br2180   1.930       .  S
C2185      C2186   1.421       .  A
C2185      C2190   1.421       .  A
C2186      C2187   1.411       .  A
C2186     Br2198   1.932       .  S
C2187      C2188   1.406       .  A
C2187     Br2202   1.931       .  S
C2188      C2191   1.486   1_655  S
C2188      C2189   1.405       .  A
C2189      C2190   1.407       .  A
C2189     Br2197   1.934   1_655  S
C2190     Br2201   1.935       .  S
C2191      C2192   1.409       .  A
C2191      C2196   1.409       .  A
C2192      C2193   1.409       .  A
C2192     Br2203   1.928       .  S
C2193      C2194   1.410       .  A
C2193     Br2199   1.928       .  S
C2194      C2195   1.411       .  A
C2195      C2196   1.406       .  A
C2195     Br2204   1.930       .  S
C2196     Br2200   1.931       .  S
C2205      C2206   1.427       .  A
C2205      C2210   1.423       .  A
C2206      C2207   1.405       .  A
C2206     Br2218   1.937       .  S
C2207      C2208   1.403       .  A
C2207     Br2222   1.936       .  S
C2208      C2211   1.481       .  S
C2208      C2209   1.406       .  A
C2209      C2210   1.407       .  A
C2209     Br2217   1.935       .  S
C2210     Br2221   1.932       .  S
C2211      C2212   1.408       .  A
C2211      C2216   1.405       .  A
C2212      C2213   1.407       .  A
C2212     Br2223   1.933       .  S
C2213      C2214   1.417       .  A
C2213     Br2219   1.932       .  S
C2214      C2215   1.414       .  A
C2215      C2216   1.404       .  A
C2215     Br2224   1.919       .  S
C2216     Br2220   1.935       .  S
C2225      C2226   1.420       .  A
C2225      C2230   1.422       .  A
C2226      C2227   1.404       .  A
C2226     Br2238   1.934       .  S
C2227      C2228   1.405       .  A
C2227     Br2242   1.933       .  S
C2228      C2231   1.482       .  S
C2228      C2229   1.407       .  A
C2229      C2230   1.408       .  A
C2229     Br2237   1.934       .  S
C2230     Br2241   1.933       .  S
C2231      C2232   1.410       .  A
C2231      C2236   1.411       .  A
C2232      C2233   1.403       .  A
C2232     Br2243   1.933       .  S
C2233      C2234   1.408       .  A
C2233     Br2239   1.928       .  S
C2234      C2235   1.406       .  A
C2235      C2236   1.405       .  A
C2235     Br2244   1.930       .  S
C2236     Br2240   1.929       .  S
C2245      C2246   1.412       .  A
C2245      C2250   1.414       .  A
C2246      C2247   1.405       .  A
C2246     Br2258   1.930       .  S
C2247      C2248   1.408       .  A
C2247     Br2262   1.932       .  S
C2248      C2251   1.475       .  S
C2248      C2249   1.406       .  A
C2249      C2250   1.403       .  A
C2249     Br2257   1.933       .  S
C2250     Br2261   1.931       .  S
C2251      C2252   1.405       .  A
C2251      C2256   1.404       .  A
C2252      C2253   1.406       .  A
C2252     Br2263   1.930       .  S
C2253      C2254   1.416       .  A
C2253     Br2259   1.932       .  S
C2254      C2255   1.416       .  A
C2255      C2256   1.402       .  A
C2255     Br2264   1.922       .  S
C2256     Br2260   1.936       .  S
C2265      C2266   1.408       .  A
C2265      C2270   1.411       .  A
C2266      C2267   1.409       .  A
C2266     Br2278   1.928       .  S
C2267      C2268   1.410       .  A
C2267     Br2282   1.928       .  S
C2268      C2271   1.489       .  S
C2268      C2269   1.410       .  A
C2269      C2270   1.410       .  A
C2269     Br2277   1.930       .  S
C2270     Br2281   1.929       .  S
C2271      C2272   1.408       .  A
C2271      C2276   1.409       .  A
C2272      C2273   1.410       .  A
C2272     Br2283   1.929       .  S
C2273      C2274   1.413       .  A
C2273     Br2279   1.929       .  S
C2274      C2275   1.415       .  A
C2275      C2276   1.408       .  A
C2275     Br2284   1.931       .  S
C2276     Br2280   1.931       .  S
C2285      C2286   1.411       .  A
C2285      C2290   1.410       .  A
C2286      C2287   1.409       .  A
C2286     Br2298   1.928       .  S
C2287      C2288   1.408       .  A
C2287     Br2302   1.928       .  S
C2288      C2291   1.484       .  S
C2288      C2289   1.409       .  A
C2289      C2290   1.407       .  A
C2289     Br2297   1.931       .  S
C2290     Br2301   1.930       .  S
C2291      C2292   1.408       .  A
C2291      C2296   1.408       .  A
C2292      C2293   1.409       .  A
C2292     Br2303   1.927       .  S
C2293      C2294   1.411       .  A
C2293     Br2299   1.929       .  S
C2294      C2295   1.415       .  A
C2295      C2296   1.406       .  A
C2295     Br2304   1.932       .  S
C2296     Br2300   1.932       .  S
C2305      C2306   1.413       .  A
C2305      C2310   1.417       .  A
C2306      C2307   1.410       .  A
C2306     Br2318   1.928       .  S
C2307      C2308   1.408       .  A
C2307     Br2322   1.928       .  S
C2308      C2311   1.489       .  S
C2308      C2309   1.408       .  A
C2309      C2310   1.410       .  A
C2309     Br2317   1.931       .  S
C2310     Br2321   1.931       .  S
C2311      C2312   1.410       .  A
C2311      C2316   1.409       .  A
C2312      C2313   1.412       .  A
C2312     Br2323   1.928       .  S
C2313      C2314   1.413       .  A
C2313     Br2319   1.931       .  S
C2314      C2315   1.412       .  A
C2315      C2316   1.407       .  A
C2315     Br2324   1.932       .  S
C2316     Br2320   1.931       .  S
C2325      C2326   1.409       .  A
C2325      C2330   1.411       .  A
C2326      C2327   1.408       .  A
C2326     Br2338   1.930       .  S
C2327      C2328   1.412       .  A
C2327     Br2342   1.930       .  S
C2328      C2331   1.494       .  S
C2328      C2329   1.412       .  A
C2329      C2330   1.412       .  A
C2329     Br2337   1.929       .  S
C2330     Br2341   1.928       .  S
C2331      C2332   1.411       .  A
C2331      C2336   1.412       .  A
C2332      C2333   1.408       .  A
C2332     Br2343   1.930       .  S
C2333      C2334   1.410       .  A
C2333     Br2339   1.930       .  S
C2334      C2335   1.411       .  A
C2335      C2336   1.413       .  A
C2335     Br2344   1.930       .  S
C2336     Br2340   1.929       .  S
C2345      C2346   1.422       .  A
C2345      C2350   1.422       .  A
C2346      C2347   1.411       .  A
C2346     Br2358   1.932       .  S
C2347      C2348   1.406       .  A
C2347     Br2362   1.932       .  S
C2348      C2351   1.488   1_455  S
C2348      C2349   1.405       .  A
C2349      C2350   1.409       .  A
C2349     Br2357   1.932       .  S
C2350     Br2361   1.931       .  S
C2351      C2352   1.409       .  A
C2351      C2356   1.411       .  A
C2352      C2353   1.407       .  A
C2352     Br2363   1.929   1_655  S
C2353      C2354   1.409       .  A
C2353     Br2359   1.930       .  S
C2354      C2355   1.409       .  A
C2355      C2356   1.410       .  A
C2355     Br2364   1.928       .  S
C2356     Br2360   1.928       .  S
C2365      C2366   1.413       .  A
C2365      C2370   1.412       .  A
C2366      C2367   1.408       .  A
C2366     Br2378   1.926       .  S
C2367      C2368   1.407       .  A
C2367     Br2382   1.929       .  S
C2368      C2371   1.487   1_556  S
C2368      C2369   1.410       .  A
C2369      C2370   1.410       .  A
C2369     Br2377   1.931       .  S
C2370     Br2381   1.930       .  S
C2371      C2372   1.408       .  A
C2371      C2376   1.409       .  A
C2372      C2373   1.408       .  A
C2372     Br2383   1.929       .  S
C2373      C2374   1.411       .  A
C2373     Br2379   1.929       .  S
C2374      C2375   1.412       .  A
C2375      C2376   1.408       .  A
C2375     Br2384   1.931       .  S
C2376     Br2380   1.930       .  S
C2385      C2386   1.416       .  A
C2385      C2390   1.412       .  A
C2386      C2387   1.408       .  A
C2386     Br2398   1.927       .  S
C2387      C2388   1.407       .  A
C2387     Br2402   1.933       .  S
C2388      C2391   1.487       .  S
C2388      C2389   1.409       .  A
C2389      C2390   1.409       .  A
C2389     Br2397   1.928       .  S
C2390     Br2401   1.930       .  S
C2391      C2392   1.408       .  A
C2391      C2396   1.408       .  A
C2392      C2393   1.408       .  A
C2392     Br2403   1.932       .  S
C2393      C2394   1.415       .  A
C2393     Br2399   1.927       .  S
C2394      C2395   1.415       .  A
C2395      C2396   1.409       .  A
C2395     Br2404   1.932       .  S
C2396     Br2400   1.930       .  S
C2405      C2406   1.425       .  A
C2405      C2410   1.424       .  A
C2406      C2407   1.408       .  A
C2406     Br2418   1.935       .  S
C2407      C2408   1.404       .  A
C2407     Br2422   1.932       .  S
C2408      C2411   1.486       .  S
C2408      C2409   1.405       .  A
C2409      C2410   1.410       .  A
C2409     Br2417   1.932       .  S
C2410     Br2421   1.933       .  S
C2411      C2412   1.410       .  A
C2411      C2416   1.408       .  A
C2412      C2413   1.410       .  A
C2412     Br2423   1.928       .  S
C2413      C2414   1.411       .  A
C2413     Br2419   1.927       .  S
C2414      C2415   1.412       .  A
C2415      C2416   1.405       .  A
C2415     Br2424   1.929       .  S
C2416     Br2420   1.932       .  S
C2425      C2426   1.415       .  A
C2425      C2430   1.417       .  A
C2426      C2427   1.411       .  A
C2426     Br2438   1.931       .  S
C2427      C2428   1.409       .  A
C2427     Br2442   1.930   1_565  S
C2428      C2431   1.495   1_565  S
C2428      C2429   1.409       .  A
C2429      C2430   1.413       .  A
C2429     Br2437   1.930       .  S
C2430     Br2441   1.930       .  S
C2431      C2432   1.410       .  A
C2431      C2436   1.411       .  A
C2432      C2433   1.410       .  A
C2432     Br2443   1.931       .  S
C2433      C2434   1.412       .  A
C2433     Br2439   1.930       .  S
C2434      C2435   1.412       .  A
C2435      C2436   1.414       .  A
C2435     Br2444   1.929       .  S
C2436     Br2440   1.927       .  S
C2445      C2446   1.414       .  A
C2445      C2450   1.415       .  A
C2446      C2447   1.407       .  A
C2446     Br2458   1.932       .  S
C2447      C2448   1.408       .  A
C2447     Br2462   1.929       .  S
C2448      C2451   1.483   1_554  S
C2448      C2449   1.408       .  A
C2449      C2450   1.406       .  A
C2449     Br2457   1.932   1_554  S
C2450     Br2461   1.934       .  S
C2451      C2452   1.408       .  A
C2451      C2456   1.408       .  A
C2452      C2453   1.408       .  A
C2452     Br2463   1.930       .  S
C2453      C2454   1.412       .  A
C2453     Br2459   1.926       .  S
C2454      C2455   1.413       .  A
C2455      C2456   1.406       .  A
C2455     Br2464   1.931       .  S
C2456     Br2460   1.931       .  S
C2465      C2466   1.413       .  A
C2465      C2470   1.411       .  A
C2466      C2467   1.410       .  A
C2466     Br2478   1.923       .  S
C2467      C2468   1.409       .  A
C2467     Br2482   1.932       .  S
C2468      C2471   1.491       .  S
C2468      C2469   1.410       .  A
C2469      C2470   1.411       .  A
C2469     Br2477   1.928       .  S
C2470     Br2481   1.930       .  S
C2471      C2472   1.411       .  A
C2471      C2476   1.409       .  A
C2472      C2473   1.411       .  A
C2472     Br2483   1.931       .  S
C2473      C2474   1.412       .  A
C2473     Br2479   1.928       .  S
C2474      C2475   1.412       .  A
C2475      C2476   1.409       .  A
C2475     Br2484   1.931       .  S
C2476     Br2480   1.929       .  S
C2485      C2486   1.413       .  A
C2485      C2490   1.411       .  A
C2486      C2487   1.408       .  A
C2486     Br2498   1.926       .  S
C2487      C2488   1.409       .  A
C2487     Br2502   1.932       .  S
C2488      C2491   1.490       .  S
C2488      C2489   1.410       .  A
C2489      C2490   1.412       .  A
C2489     Br2497   1.928       .  S
C2490     Br2501   1.930       .  S
C2491      C2492   1.408       .  A
C2491      C2496   1.409       .  A
C2492      C2493   1.410       .  A
C2492     Br2503   1.932       .  S
C2493      C2494   1.416       .  A
C2493     Br2499   1.928       .  S
C2494      C2495   1.415       .  A
C2495      C2496   1.410       .  A
C2495     Br2504   1.931       .  S
C2496     Br2500   1.929       .  S
C2505      C2506   1.411       .  A
C2505      C2510   1.412       .  A
C2506      C2507   1.409       .  A
C2506     Br2518   1.930       .  S
C2507      C2508   1.410       .  A
C2507     Br2522   1.929       .  S
C2508      C2511   1.490       .  S
C2508      C2509   1.409       .  A
C2509      C2510   1.410       .  A
C2509     Br2517   1.929       .  S
C2510     Br2521   1.929       .  S
C2511      C2512   1.409       .  A
C2511      C2516   1.410       .  A
C2512      C2513   1.410       .  A
C2512     Br2523   1.930       .  S
C2513      C2514   1.413       .  A
C2513     Br2519   1.930       .  S
C2514      C2515   1.411       .  A
C2515      C2516   1.409       .  A
C2515     Br2524   1.929       .  S
C2516     Br2520   1.928       .  S
C2525      C2526   1.407       .  A
C2525      C2530   1.409       .  A
C2526      C2527   1.408       .  A
C2526     Br2538   1.929       .  S
C2527      C2528   1.410       .  A
C2527     Br2542   1.927       .  S
C2528      C2531   1.484   1_655  S
C2528      C2529   1.409       .  A
C2529      C2530   1.405       .  A
C2529     Br2537   1.930       .  S
C2530     Br2541   1.930       .  S
C2531      C2532   1.406       .  A
C2531      C2536   1.407       .  A
C2532      C2533   1.408       .  A
C2532     Br2543   1.930       .  S
C2533      C2534   1.415       .  A
C2533     Br2539   1.929       .  S
C2534      C2535   1.418       .  A
C2535      C2536   1.409       .  A
C2535     Br2544   1.930       .  S
C2536     Br2540   1.933       .  S
C2545      C2546   1.419       .  A
C2545      C2550   1.420       .  A
C2546      C2547   1.406       .  A
C2546     Br2558   1.933       .  S
C2547      C2548   1.406       .  A
C2547     Br2562   1.934       .  S
C2548      C2551   1.483   1_545  S
C2548      C2549   1.406       .  A
C2549      C2550   1.408       .  A
C2549     Br2557   1.929       .  S
C2550     Br2561   1.937       .  S
C2551      C2552   1.408       .  A
C2551      C2556   1.407       .  A
C2552      C2553   1.408       .  A
C2552     Br2563   1.932   1_565  S
C2553      C2554   1.413       .  A
C2553     Br2559   1.930       .  S
C2554      C2555   1.413       .  A
C2555      C2556   1.408       .  A
C2555     Br2564   1.928       .  S
C2556     Br2560   1.930       .  S
C2565      C2566   1.414       .  A
C2565      C2570   1.416       .  A
C2566      C2567   1.409       .  A
C2566     Br2578   1.930       .  S
C2567      C2568   1.408       .  A
C2567     Br2582   1.931       .  S
C2568      C2571   1.482       .  S
C2568      C2569   1.405       .  A
C2569      C2570   1.405       .  A
C2569     Br2577   1.930       .  S
C2570     Br2581   1.933       .  S
C2571      C2572   1.408       .  A
C2571      C2576   1.408       .  A
C2572      C2573   1.406       .  A
C2572     Br2583   1.933       .  S
C2573      C2574   1.411       .  A
C2573     Br2579   1.926       .  S
C2574      C2575   1.410       .  A
C2575      C2576   1.408       .  A
C2575     Br2584   1.929       .  S
C2576     Br2580   1.928       .  S
C2585      C2586   1.412       .  A
C2585      C2590   1.410       .  A
C2586      C2587   1.409       .  A
C2586     Br2598   1.929       .  S
C2587      C2588   1.409       .  A
C2587     Br2602   1.931       .  S
C2588      C2591   1.488       .  S
C2588      C2589   1.409       .  A
C2589      C2590   1.409       .  A
C2589     Br2597   1.928       .  S
C2590     Br2601   1.930       .  S
C2591      C2592   1.406       .  A
C2591      C2596   1.408       .  A
C2592      C2593   1.408       .  A
C2592     Br2603   1.933       .  S
C2593      C2594   1.418       .  A
C2593     Br2599   1.928       .  S
C2594      C2595   1.416       .  A
C2595      C2596   1.411       .  A
C2595     Br2604   1.931       .  S
C2596     Br2600   1.929       .  S
C2605      C2606   1.412       .  A
C2605      C2610   1.409       .  A
C2606      C2607   1.404       .  A
C2606     Br2618   1.924       .  S
C2607      C2608   1.407       .  A
C2607     Br2622   1.934       .  S
C2608      C2611   1.478       .  S
C2608      C2609   1.408       .  A
C2609      C2610   1.406       .  A
C2609     Br2617   1.928       .  S
C2610     Br2621   1.930       .  S
C2611      C2612   1.407       .  A
C2611      C2616   1.408       .  A
C2612      C2613   1.404       .  A
C2612     Br2623   1.933       .  S
C2613      C2614   1.411       .  A
C2613     Br2619   1.925       .  S
C2614      C2615   1.410       .  A
C2615      C2616   1.407       .  A
C2615     Br2624   1.930       .  S
C2616     Br2620   1.929       .  S
