geometry optimzed in LAMMPS
_audit_creation_date              2020-11-30 
_audit_creation_method            'lammps2cif' 
_symmetry_space_group_name_H-M    'P1' 
_symmetry_Int_Tables_number       1 
_symmetry_cell_setting            triclinic 
loop_ 
_symmetry_equiv_pos_as_xyz 
  x,y,z 
_cell_length_a                    26.20909155 
_cell_length_b                    26.02994823843289 
_cell_length_c                    26.30595677097729 
_cell_angle_alpha                 89.70536127828926 
_cell_angle_beta                  90.88149147445961 
_cell_angle_gamma                 89.79256180065529 
loop_ 
_atom_site_label 
_atom_site_type_symbol 
_atom_site_fract_x 
_atom_site_fract_y 
_atom_site_fract_z 
_atom_site_charge 
C1          C  0.31235678  0.34225295  0.14226412    -0.02200
C2          C  0.31265044  0.09384597  0.42951338    -0.02200
C3          C  0.06295327  0.07658301  0.15136003    -0.02200
C4          C  0.04313475  0.36438186  0.39533421    -0.02200
C5          C  0.28959171  0.06553056  0.65390282    -0.02200
C6          C  0.04453009  0.07550306  0.91660784    -0.02200
C7          C  0.06785179  0.36107617  0.65618093    -0.02200
C8          C  0.33738205  0.32428308  0.91495248    -0.02200
O9          O  0.36174018  0.38377437  0.06777179    -0.79900
O10         O  0.37932365  0.56337884  0.99610114    -0.79900
O11         O  0.37404209  0.50474557  0.13986208    -0.79900
O12         O  0.37780924  0.40684587  0.95962787    -0.79800
O13         O  0.39916933  0.57613226  0.10446849    -0.80000
O14         O  0.40612050  0.33304870  0.98578586    -0.79900
O15         O  0.39779799  0.51073855  0.93389333    -0.79900
O16         O  0.39071926  0.39930666  0.14342504    -0.79900
C17         C  0.35678512  0.37785924  0.11613672     1.09800
C18         C  0.37187927  0.54940003  0.94954505     1.09700
C19         C  0.37272125  0.55337383  0.13765384     1.09800
C20         C  0.37606207  0.35646478  0.95426959     1.09700
O21         O  0.49440635  0.38586334  0.97859233    -0.79900
O22         O  0.50784491  0.56480918  0.09013801    -0.79900
O23         O  0.50017229  0.41929841  0.13195686    -0.79900
O24         O  0.51220398  0.50300428  0.95534256    -0.79900
O25         O  0.48851037  0.57558802  0.98700876    -0.79900
O26         O  0.47563083  0.35533254  0.08295043    -0.79900
O27         O  0.46486749  0.42012656  0.90764331    -0.79800
O28         O  0.48184317  0.51886541  0.15452628    -0.79900
Co29       Co  0.42981961  0.39372239  0.02668458     1.51500
Co30       Co  0.44262852  0.55706072  0.04419411     1.51700
Co31       Co  0.43667346  0.46146402  0.12990912     1.51600
Co32       Co  0.44485337  0.45646532  0.96865209     1.51500
O33         O  0.43914651  0.47320484  0.04818492    -1.41800
C34         C  0.49394389  0.38637255  0.92872713     1.09800
C35         C  0.51224919  0.55222938  0.13715526     1.09800
C36         C  0.50411399  0.37245456  0.12040969     1.09800
C37         C  0.51868843  0.55255326  0.95838242     1.09800
C38         C  0.33957344  0.58605719  0.17478756    -0.02200
C39         C  0.04724098  0.81791301  0.14724081    -0.02200
C40         C  0.05736127  0.57663356  0.42369224    -0.02200
C41         C  0.30739027  0.86905700  0.41247375    -0.02200
O42         O  0.37179269  0.01644287  0.43379306    -0.79900
O43         O  0.48646060  0.00910785  0.64521415    -0.79900
O44         O  0.30381780  0.00090128  0.58338603    -0.79900
O45         O  0.54631271  0.01363523  0.47868371    -0.79800
O46         O  0.37338804  0.01779810  0.63068914    -0.80000
O47         O  0.47640692  0.03253580  0.43617944    -0.79900
O48         O  0.52073796  0.03400659  0.57461128    -0.79900
O49         O  0.35376353  0.04536290  0.50753609    -0.79900
C50         C  0.34822590  0.05010911  0.45914245     1.09800
C51         C  0.51822873  0.03773654  0.62246758     1.09700
C52         C  0.32419281  0.02616086  0.62061182     1.09800
C53         C  0.52342444  0.04105562  0.44561062     1.09700
O54         O  0.49618462  0.92245893  0.42703954    -0.79900
O55         O  0.39089760  0.91556842  0.64896138    -0.79900
O56         O  0.32172384  0.93855043  0.48145642    -0.79900
O57         O  0.55002252  0.92752089  0.59726462    -0.79900
O58         O  0.48035817  0.90279889  0.63402484    -0.79900
O59         O  0.38884708  0.90569944  0.44394633    -0.79900
O60         O  0.53850349  0.90399341  0.49693793    -0.79800
O61         O  0.34847701  0.90069582  0.58009579    -0.79900
Co62       Co  0.43390883  0.96832354  0.44530822     1.51500
Co63       Co  0.43395036  0.96459599  0.60871028     1.51700
Co64       Co  0.36076775  0.97317364  0.54323498     1.51600
Co65       Co  0.52215776  0.96828535  0.53592953     1.51500
O66         O  0.43935729  0.96186085  0.52707250    -1.41800
C67         C  0.53299281  0.89820841  0.44948114     1.09800
C68         C  0.35740945  0.88827093  0.62713133     1.09800
C69         C  0.34031444  0.90616660  0.44925028     1.09800
C70         C  0.52916735  0.89720573  0.62857438     1.09800
C71         C  0.53021251  0.35303773  0.89383452    -0.02200
C72         C  0.81636757  0.34493103  0.66774520    -0.02200
C73         C  0.54929055  0.08058672  0.65022354    -0.02200
C74         C  0.81180807  0.09689615  0.93146567    -0.02200
C75         C  0.33186066  0.58065808  0.91160863    -0.02200
C76         C  0.33143822  0.84238804  0.66035123    -0.02200
C77         C  0.04862464  0.59256205  0.65086018    -0.02200
C78         C  0.07585483  0.84195444  0.93632666    -0.02200
C79         C  0.56744000  0.85856617  0.41876205    -0.02200
C80         C  0.81013703  0.57241281  0.42250657    -0.02200
C81         C  0.54895254  0.57829441  0.17865290    -0.02200
C82         C  0.82849076  0.83469798  0.15744905    -0.02200
C83         C  0.56439984  0.58863277  0.93415975    -0.02200
C84         C  0.81888436  0.57525162  0.67425995    -0.02200
C85         C  0.56397773  0.85703713  0.66253517    -0.02200
C86         C  0.82450752  0.83711524  0.92994190    -0.02200
O87         O  0.99549582  0.07165286  0.99837333    -0.79900
O88         O  0.89086683  0.85359817  0.00164451    -0.79900
O89         O  0.06563241  0.91377312  0.00306271    -0.79900
O90         O  0.82432381  0.02523253  0.99630808    -0.79800
O91         O  0.99346127  0.87957516  0.97928233    -0.80000
O92         O  0.89150810  0.07127763  0.98085844    -0.79900
O93         O  0.84439220  0.91967354  0.97534300    -0.79900
O94         O  0.01215387  0.99697827  0.96656571    -0.79900
C95         C  0.01561802  0.04620865  0.96294958     1.09800
C96         C  0.85625316  0.87216047  0.97071845     1.09700
C97         C  0.04327123  0.88089072  0.97384526     1.09800
C98         C  0.84462236  0.06168505  0.97132635     1.09700
O99         O  0.87699978  0.07263019  0.09296176    -0.79900
O100        O  0.98510770  0.82942633  0.07261101    -0.79900
O101        O  0.04612463  0.01156764  0.07690717    -0.79900
O102        O  0.83100919  0.89695791  0.08338734    -0.79900
O103        O  0.90586710  0.87768329  0.11346480    -0.79900
O104        O  0.98063137  0.05405450  0.10750550    -0.79900
O105        O  0.83244674  0.00259244  0.10629654    -0.79800
O106        O  0.01683069  0.90226289  0.09982163    -0.79900
Co107      Co  0.93533599  0.05540272  0.04463997     1.51500
Co108      Co  0.94723845  0.89006873  0.04661456     1.51700
Co109      Co  0.00698548  0.95288882  0.03329807     1.51600
Co110      Co  0.84465060  0.96209384  0.04038170     1.51500
O111        O  0.92761384  0.97108344  0.04134755    -1.41800
C112        C  0.84178601  0.04962391  0.11699983     1.09800
C113        C  0.01560617  0.85161972  0.10416855     1.09800
C114        C  0.02858347  0.04594890  0.10859460     1.09800
C115        C  0.85733775  0.87160502  0.11596608     1.09800
C116        C  0.55379891  0.08275466  0.41436813    -0.02200
C117        C  0.80431272  0.08191052  0.15242291    -0.02200
C118        C  0.54388184  0.33855365  0.15406828    -0.02200
C119        C  0.82295961  0.34164609  0.42081564    -0.02200
O120        O  0.05838795  0.50710091  0.49298494    -0.79900
O121        O  0.82607546  0.50977482  0.60530951    -0.79900
O122        O  0.87908060  0.50120230  0.43652510    -0.79900
O123        O  0.99963528  0.50862196  0.64631514    -0.79800
O124        O  0.83520275  0.52665319  0.50271551    -0.80000
O125        O  0.00845886  0.54423349  0.57359737    -0.79900
O126        O  0.89631867  0.52610333  0.64832528    -0.79900
O127        O  0.98267009  0.52696716  0.46223014    -0.79900
C128        C  0.03213678  0.53540182  0.46225432     1.09800
C129        C  0.84932752  0.53565334  0.63948612     1.09700
C130        C  0.84401003  0.53104586  0.45549642     1.09800
C131        C  0.01645676  0.54661904  0.62190294     1.09700
O132        O  0.04609716  0.43351630  0.58870154    -0.79900
O133        O  0.82502181  0.41748855  0.48192371    -0.79900
O134        O  0.97434475  0.43203122  0.41108163    -0.79900
O135        O  0.87957985  0.41500977  0.65578974    -0.79900
O136        O  0.83550420  0.39578366  0.58758690    -0.79900
O137        O  0.01447304  0.40870452  0.48122666    -0.79900
O138        O  0.98306373  0.39819801  0.63019581    -0.79800
O139        O  0.89935807  0.38809776  0.46371989    -0.79900
Co140      Co  0.00280365  0.47534051  0.53146075     1.51500
Co141      Co  0.84141560  0.46225600  0.54525215     1.51700
Co142      Co  0.93907418  0.45747907  0.47201331     1.51600
Co143      Co  0.93802744  0.46184828  0.63347718     1.51500
O144        O  0.92448456  0.46404412  0.55131077    -1.41800
C145        C  0.03091889  0.39923057  0.62170703     1.09800
C146        C  0.85077550  0.38395809  0.45833129     1.09800
C147        C  0.00867067  0.40270448  0.43143690     1.09800
C148        C  0.84526650  0.38759432  0.63445225     1.09800
C149        C  0.77820393  0.36699295  0.38534101    -0.11700
C150        C  0.72540847  0.34969451  0.38374809     0.03800
C151        C  0.69598775  0.35149962  0.33947720    -0.12200
C152        C  0.70966735  0.38081506  0.29815029     0.18600
C153        C  0.75781898  0.40632054  0.30111697    -0.09300
C154        C  0.78987202  0.40078711  0.34505320    -0.02200
H155        H  0.65867704  0.33359169  0.33916611     0.05200
C156        C  0.66933622  0.38547213  0.25667039     0.20600
H157        H  0.82516907  0.42216326  0.34700438     0.10300
C158        C  0.61775879  0.39740962  0.26827209    -0.15600
C159        C  0.57769496  0.39595660  0.23115145     0.03300
C160        C  0.58656270  0.37379607  0.18231032    -0.10900
C161        C  0.63960542  0.36940284  0.17107699    -0.01000
C162        C  0.67905125  0.37165459  0.20684269    -0.06100
H163        H  0.60828805  0.40761496  0.30681362     0.06300
H164        H  0.65416893  0.36413465  0.13442321     0.09700
Br165      Br  0.78313012  0.45012705  0.24852028    -0.05800
Br166      Br  0.68018135  0.33380862  0.43866025    -0.02800
Br167      Br  0.50999234  0.41295549  0.25370767     0.00100
Br168      Br  0.74329109  0.34512211  0.18547964    -0.04300
C169        C  0.78058787  0.12396919  0.11573004    -0.11700
C170        C  0.78901071  0.17799430  0.12016730     0.03800
C171        C  0.74843357  0.21236586  0.11153967    -0.12200
C172        C  0.70024911  0.19376860  0.09718661     0.18600
C173        C  0.69760407  0.14187668  0.07991740    -0.09300
C174        C  0.74145195  0.11106418  0.08204274    -0.02200
H175        H  0.75377478  0.25277025  0.11926678     0.05200
C176        C  0.65520133  0.22852479  0.10232045     0.20600
H177        H  0.74174142  0.07382713  0.06403565     0.10300
C178        C  0.65209902  0.27738846  0.07836234    -0.15600
C179        C  0.60831144  0.30942167  0.08363802     0.03300
C180        C  0.57232161  0.29720080  0.12150647    -0.10900
C181        C  0.57315503  0.24570298  0.13849257    -0.01000
C182        C  0.61445850  0.21396337  0.13259580    -0.06100
H183        H  0.68268023  0.29030924  0.05445730     0.06300
H184        H  0.54370092  0.22909003  0.16088402     0.09700
Br185      Br  0.63741077  0.10691791  0.05672774    -0.05800
Br186      Br  0.85436617  0.20724421  0.13611347    -0.02800
Br187      Br  0.60633839  0.37469280  0.04775022     0.00100
Br188      Br  0.61075508  0.15290469  0.17084460    -0.04300
C189        C  0.86557530  0.31295402  0.38691498    -0.11700
C190        C  0.88392445  0.26272659  0.40114271     0.03800
C191        C  0.88307061  0.22143192  0.36609818    -0.12200
C192        C  0.87371533  0.22970979  0.31400526     0.18600
C193        C  0.86939278  0.28158926  0.29839327    -0.09300
C194        C  0.86871660  0.32193388  0.33396829    -0.02200
H195        H  0.88646099  0.18283884  0.38087235     0.05200
C196        C  0.85918522  0.18665707  0.27761108     0.20600
H197        H  0.86853120  0.36012010  0.31873799     0.10300
C198        C  0.80976187  0.18724779  0.25887971    -0.15600
C199        C  0.79189392  0.14933688  0.22606561     0.03300
C200        C  0.82545458  0.11469728  0.19986394    -0.10900
C201        C  0.87562525  0.11292761  0.22058804    -0.01000
C202        C  0.88886596  0.14329749  0.26412230    -0.06100
H203        H  0.78372404  0.21658059  0.27213047     0.06300
H204        H  0.90144391  0.08310544  0.20825810     0.09700
Br205      Br  0.85806683  0.29991590  0.22878690    -0.05800
Br206      Br  0.89995384  0.24520511  0.46980488    -0.02800
Br207      Br  0.72065489  0.15256473  0.21903869     0.00100
Br208      Br  0.92066011  0.10693885  0.31813688    -0.04300
C209        C  0.51751485  0.30786979  0.19947110    -0.11700
C210        C  0.47202578  0.27873584  0.19473131     0.03800
C211        C  0.45643254  0.24524823  0.23401036    -0.12200
C212        C  0.48580478  0.23721621  0.27851385     0.18600
C213        C  0.53345934  0.26096291  0.28091141    -0.09300
C214        C  0.54922084  0.29247237  0.24159677    -0.02200
H215        H  0.42452288  0.22015309  0.22665212     0.05200
C216        C  0.47852838  0.19030725  0.31030478     0.20600
H217        H  0.58957543  0.30044062  0.24202117     0.10300
C218        C  0.46718157  0.19119116  0.36282619    -0.15600
C219        C  0.48083126  0.14856565  0.39482716     0.03300
C220        C  0.51627706  0.11267114  0.37699944    -0.10900
C221        C  0.51693383  0.10787762  0.32311715    -0.01000
C222        C  0.49629929  0.14429676  0.29055956    -0.06100
H223        H  0.44858926  0.22445368  0.37862045     0.06300
H224        H  0.53399341  0.07759029  0.30297518     0.09700
Br225      Br  0.58515841  0.24136614  0.32942616    -0.05800
Br226      Br  0.44569710  0.26113972  0.12968574    -0.02800
Br227      Br  0.45472671  0.13961380  0.46297246     0.00100
Br228      Br  0.49806165  0.13033148  0.21895995    -0.04300
C229        C  0.58526469  0.12201188  0.45025202    -0.11700
C230        C  0.58723704  0.17669086  0.44153217     0.03800
C231        C  0.63312851  0.20281619  0.44566607    -0.12200
C232        C  0.67579239  0.18181422  0.46950789     0.18600
C233        C  0.67222309  0.13215683  0.48952071    -0.09300
C234        C  0.62721248  0.10256683  0.48011993    -0.02200
H235        H  0.63449072  0.24221104  0.43323034     0.05200
C236        C  0.72416682  0.21158577  0.46630015     0.20600
H237        H  0.62853427  0.06232950  0.48963835     0.10300
C238        C  0.73879759  0.24700667  0.50417167    -0.15600
C239        C  0.77105082  0.28947853  0.49331277     0.03300
C240        C  0.79352522  0.29441083  0.44489683    -0.10900
C241        C  0.77820119  0.25669442  0.40874846    -0.01000
C242        C  0.74543542  0.21714782  0.41851153    -0.06100
H243        H  0.71825251  0.24700659  0.53916564     0.06300
H244        H  0.78698809  0.26192839  0.36905506     0.09700
Br245      Br  0.73340200  0.10173640  0.51787308    -0.05800
Br246      Br  0.53606358  0.22791130  0.45604667    -0.02800
Br247      Br  0.75763172  0.34854284  0.53247471     0.00100
Br248      Br  0.72145339  0.18223495  0.35963189    -0.04300
C249        C  0.59319568  0.05435417  0.37998641    -0.11700
C250        C  0.63828149  0.07943698  0.36485796     0.03800
C251        C  0.64972817  0.08146901  0.31379001    -0.12200
C252        C  0.63757001  0.03996194  0.28272227     0.18600
C253        C  0.59850140  0.00625714  0.29962685    -0.09300
C254        C  0.57660208  0.01384850  0.34799958    -0.02200
H255        H  0.68159433  0.10481569  0.30313675     0.05200
C256        C  0.67712663  0.02884567  0.24347991     0.20600
H257        H  0.54259907  0.99254596  0.35739746     0.10300
C258        C  0.72823570  0.02321984  0.26045685    -0.15600
C259        C  0.76947454  0.02667027  0.22742035     0.03300
C260        C  0.76213345  0.04510690  0.17705456    -0.10900
C261        C  0.71085924  0.03905189  0.15844554    -0.01000
C262        C  0.66871369  0.03370072  0.19091367    -0.06100
H263        H  0.73673937  0.01718517  0.30023851     0.06300
H264        H  0.70188555  0.03572240  0.11894190     0.09700
Br265      Br  0.56670485  0.95490780  0.25847720    -0.05800
Br266      Br  0.70146359  0.06131859  0.39849269    -0.02800
Br267      Br  0.83444588  0.00367040  0.25323945     0.00100
Br268      Br  0.60113541  0.02991467  0.16104326    -0.04300
C269        C  0.60789564  0.88526028  0.69437695    -0.11700
C270        C  0.66058742  0.86843307  0.69830452     0.03800
C271        C  0.68709046  0.87045631  0.74414150    -0.12200
C272        C  0.66856679  0.89791026  0.78465497     0.18600
C273        C  0.62022626  0.92179676  0.77965115    -0.09300
C274        C  0.59321201  0.91855808  0.73306596    -0.02200
H275        H  0.72540131  0.85449744  0.74690078     0.05200
C276        C  0.70230417  0.89917754  0.83016089     0.20600
H277        H  0.55891911  0.94070358  0.72728569     0.10300
C278        C  0.75226275  0.91931014  0.82792767    -0.15600
C279        C  0.78874330  0.90993818  0.86701811     0.03300
C280        C  0.77992275  0.86964213  0.90246415    -0.10900
C281        C  0.72732603  0.85511252  0.90611322    -0.01000
C282        C  0.68962031  0.86999232  0.87193787    -0.06100
H283        H  0.76298159  0.94278901  0.79588117     0.06300
H284        H  0.71291516  0.82756524  0.93173636     0.09700
Br285      Br  0.58782290  0.95805909  0.83397875    -0.05800
Br286      Br  0.71156653  0.86802521  0.64646143    -0.02800
Br287      Br  0.85279675  0.94548169  0.86210826     0.00100
Br288      Br  0.62360367  0.83983923  0.87903425    -0.04300
C289        C  0.78707062  0.61901025  0.64474182    -0.11700
C290        C  0.77886790  0.66946503  0.66540257     0.03800
C291        C  0.75218007  0.70719902  0.63797369    -0.12200
C292        C  0.71139223  0.69220118  0.60701309     0.18600
C293        C  0.71063367  0.63923961  0.59266786    -0.09300
C294        C  0.75225674  0.60624182  0.60541004    -0.02200
H295        H  0.75120623  0.74570878  0.65356629     0.05200
C296        C  0.66573158  0.72807145  0.60787217     0.20600
H297        H  0.75160442  0.56738485  0.59118636     0.10300
C298        C  0.66334295  0.77513735  0.58043310    -0.15600
C299        C  0.62626681  0.81456090  0.59097489     0.03300
C300        C  0.59524481  0.81137431  0.63514996    -0.10900
C301        C  0.60859908  0.76829338  0.66652902    -0.01000
C302        C  0.63494459  0.72516388  0.65029433    -0.06100
H303        H  0.69183367  0.78251692  0.55203696     0.06300
H304        H  0.60064025  0.76867244  0.70648354     0.09700
Br305      Br  0.65309768  0.60590517  0.56224590    -0.05800
Br306      Br  0.76787562  0.68111409  0.73639534    -0.02800
Br307      Br  0.63381535  0.87742698  0.55354138     0.00100
Br308      Br  0.63546539  0.66639089  0.69389029    -0.04300
C309        C  0.85689363  0.60426151  0.71192957    -0.11700
C310        C  0.88450689  0.64723462  0.69461556     0.03800
C311        C  0.89544076  0.68902118  0.72699096    -0.12200
C312        C  0.88296625  0.68740264  0.77886808     0.18600
C313        C  0.86646138  0.63963370  0.79828739    -0.09300
C314        C  0.85603757  0.59880683  0.76557380    -0.02200
H315        H  0.91358079  0.72268810  0.71144994     0.05200
C316        C  0.88426847  0.73457967  0.81183330     0.20600
H317        H  0.84469185  0.56465409  0.78443144     0.10300
C318        C  0.90267401  0.73107716  0.86192968    -0.15600
C319        C  0.89160719  0.76820668  0.89855735     0.03300
C320        C  0.85943077  0.81092486  0.88751998    -0.10900
C321        C  0.85167956  0.81915115  0.83391961    -0.01000
C322        C  0.86287024  0.78213900  0.79693553    -0.06100
H323        H  0.92628249  0.69863882  0.87297794     0.06300
H324        H  0.83197735  0.85105672  0.81797200     0.09700
Br325      Br  0.85181608  0.62705570  0.86849599    -0.05800
Br326      Br  0.90515574  0.65066322  0.62629452    -0.02800
Br327      Br  0.92267702  0.75482765  0.96160655     0.00100
Br328      Br  0.84010393  0.79776794  0.72864531    -0.04300
C329        C  0.54891679  0.63454438  0.89615411    -0.11700
C330        C  0.50083658  0.65970931  0.88983003     0.03800
C331        C  0.49323994  0.69525363  0.84982768    -0.12200
C332        C  0.53266514  0.71217367  0.81856104     0.18600
C333        C  0.58208128  0.69750846  0.83290295    -0.09300
C334        C  0.58969017  0.66049258  0.87092652    -0.02200
H335        H  0.45647206  0.71218984  0.84589521     0.05200
C336        C  0.52355554  0.75194947  0.77784510     0.20600
H337        H  0.62886080  0.65285242  0.88079883     0.10300
C338        C  0.52703614  0.80395967  0.79043920    -0.15600
C339        C  0.52138250  0.84228386  0.75316282     0.03300
C340        C  0.52516591  0.82943400  0.70075463    -0.10900
C341        C  0.50769768  0.77903106  0.68946610    -0.01000
C342        C  0.50990108  0.73974652  0.72707950    -0.06100
H343        H  0.52808065  0.81469658  0.83009937     0.06300
H344        H  0.50419329  0.76769023  0.65011943     0.09700
Br345      Br  0.64110255  0.72995825  0.80536225    -0.05800
Br346      Br  0.44934345  0.66449854  0.94080777    -0.02800
Br347      Br  0.48436346  0.90254501  0.77531839     0.00100
Br348      Br  0.50308177  0.67000145  0.70545973    -0.04300
C349        C  0.60635450  0.55822304  0.90090773    -0.11700
C350        C  0.59755119  0.53765481  0.85096020     0.03800
C351        C  0.63789400  0.51776235  0.82230499    -0.12200
C352        C  0.68944741  0.52192114  0.83757048     0.18600
C353        C  0.69899243  0.54299320  0.88463244    -0.09300
C354        C  0.65958802  0.56633909  0.90982474    -0.02200
H355        H  0.63025775  0.50742183  0.78304512     0.05200
C356        C  0.72685604  0.52941619  0.79645344     0.20600
H357        H  0.67400215  0.59851205  0.92965659     0.10300
C358        C  0.71181046  0.56652504  0.76095938    -0.15600
C359        C  0.72961899  0.56354056  0.71251132     0.03300
C360        C  0.77919384  0.54388683  0.70498098    -0.10900
C361        C  0.79560093  0.50536638  0.73922742    -0.01000
C362        C  0.77048045  0.49876308  0.78587444    -0.06100
H363        H  0.67735994  0.58878604  0.76683988     0.06300
H364        H  0.83212662  0.48671651  0.73382546     0.09700
Br365      Br  0.76551426  0.54974678  0.91408047    -0.05800
Br366      Br  0.54825867  0.56328685  0.80299266    -0.02800
Br367      Br  0.67380264  0.54466887  0.66906709     0.00100
Br368      Br  0.80387379  0.45438439  0.83368059    -0.04300
C369        C  0.79520245  0.79254153  0.95851882    -0.11700
C370        C  0.77658409  0.74680154  0.93396336     0.03800
C371        C  0.74160080  0.71434806  0.95744875    -0.12200
C372        C  0.70859167  0.73251261  0.99466419     0.18600
C373        C  0.72094344  0.78225198  0.01475455    -0.09300
C374        C  0.76750087  0.80655329  0.00215019    -0.02200
H375        H  0.73210757  0.67864526  0.93848295     0.05200
C376        C  0.66328742  0.69709685  0.00577300     0.20600
H377        H  0.77504824  0.84366033  0.01887570     0.10300
C378        C  0.67335936  0.64364605  0.01251756    -0.15600
C379        C  0.63502786  0.60512019  0.00596143     0.03300
C380        C  0.58933495  0.61929297  0.98107961    -0.10900
C381        C  0.57496955  0.67081016  0.99054604    -0.01000
C382        C  0.61110721  0.70983341  0.99800305    -0.06100
H383        H  0.71240032  0.63138040  0.01838618     0.06300
H384        H  0.53679541  0.68307074  0.98298337     0.09700
Br385      Br  0.67476180  0.83106682  0.04311852    -0.05800
Br386      Br  0.77069879  0.73658814  0.86219874    -0.02800
Br387      Br  0.65101157  0.53250378  0.01538724     0.00100
Br388      Br  0.58379715  0.77658693  0.98465641    -0.04300
C389        C  0.60140585  0.60712358  0.16819502    -0.11700
C390        C  0.62868465  0.63480676  0.20772973     0.03800
C391        C  0.67067077  0.66526646  0.19609295    -0.12200
C392        C  0.69265669  0.66311509  0.14839692     0.18600
C393        C  0.67814600  0.62193373  0.11812428    -0.09300
C394        C  0.62792125  0.60216183  0.12285174    -0.02200
H395        H  0.68554218  0.69202719  0.22401617     0.05200
C396        C  0.72196179  0.70897322  0.13005112     0.20600
H397        H  0.61157317  0.57735728  0.09506266     0.10300
C398        C  0.76887306  0.70825458  0.10489914    -0.15600
C399        C  0.79786096  0.75427719  0.10071131     0.03300
C400        C  0.78626146  0.79789283  0.13099099    -0.10900
C401        C  0.73387923  0.79968239  0.14380297    -0.01000
C402        C  0.70180141  0.75726995  0.13984446    -0.06100
H403        H  0.78356744  0.67284026  0.08952849     0.06300
H404        H  0.71543931  0.83337167  0.15596235     0.09700
Br405      Br  0.73253247  0.57470602  0.10390558    -0.05800
Br406      Br  0.61367674  0.63679171  0.27855540    -0.02800
Br407      Br  0.85709765  0.75239983  0.06092942     0.00100
Br408      Br  0.62929745  0.76729209  0.13873754    -0.04300
C409        C  0.77842761  0.54658578  0.37885539    -0.11700
C410        C  0.75761412  0.57626471  0.33684801     0.03800
C411        C  0.72219127  0.55525505  0.30380709    -0.12200
C412        C  0.69126969  0.51540116  0.31989895     0.18600
C413        C  0.70583660  0.48907847  0.36505750    -0.09300
C414        C  0.75280915  0.50026401  0.38956312    -0.02200
H415        H  0.71107774  0.57712519  0.27018715     0.05200
C416        C  0.64492594  0.50690246  0.28746271     0.20600
H417        H  0.76230820  0.47957917  0.42421950     0.10300
C418        C  0.65283997  0.49948566  0.23507192    -0.15600
C419        C  0.61343712  0.50646244  0.19956507     0.03300
C420        C  0.56910584  0.53317346  0.21395939    -0.10900
C421        C  0.55685208  0.52665334  0.26553295    -0.01000
C422        C  0.59406324  0.51606963  0.30256681    -0.06100
H423        H  0.68983839  0.48880187  0.22133185     0.06300
H424        H  0.51863007  0.52687502  0.27858996     0.09700
Br425      Br  0.65977318  0.45011664  0.40410607    -0.05800
Br426      Br  0.75213927  0.64996563  0.33225346    -0.02800
Br427      Br  0.62319409  0.48275623  0.13195607     0.00100
Br428      Br  0.56954789  0.52181713  0.37033395    -0.04300
C429        C  0.84645457  0.61265485  0.39515913    -0.11700
C430        C  0.87025903  0.59954255  0.34877836     0.03800
C431        C  0.87975658  0.63773421  0.31237726    -0.12200
C432        C  0.87007550  0.69047071  0.32027205     0.18600
C433        C  0.85614812  0.70472923  0.36941899    -0.09300
C434        C  0.84590626  0.66669043  0.40551863    -0.02200
H435        H  0.89446553  0.62536644  0.27650938     0.05200
C436        C  0.87213530  0.72772787  0.27614978     0.20600
H437        H  0.83160195  0.68349341  0.43857889     0.10300
C438        C  0.89083662  0.77912792  0.27988824    -0.15600
C439        C  0.88874063  0.81388967  0.23764262     0.03300
C440        C  0.86646819  0.79833610  0.19040161    -0.10900
C441        C  0.86288220  0.74417734  0.18645298    -0.01000
C442        C  0.85671776  0.71159115  0.22740415    -0.06100
H443        H  0.90743659  0.79258333  0.31514009     0.06300
H444        H  0.86456544  0.72393707  0.15204063     0.09700
Br445      Br  0.83941611  0.77405371  0.38875406    -0.05800
Br446      Br  0.88153907  0.52997731  0.32639152    -0.02800
Br447      Br  0.91031439  0.88362401  0.24810778     0.00100
Br448      Br  0.82086042  0.64867187  0.21147790    -0.04300
C449        C  0.52634233  0.82442430  0.38992947    -0.11700
C450        C  0.51210794  0.77566650  0.40626013     0.03800
C451        C  0.50917378  0.73539792  0.37107164    -0.12200
C452        C  0.50647169  0.74455722  0.31776778     0.18600
C453        C  0.50201405  0.79757337  0.30329199    -0.09300
C454        C  0.51139153  0.83623458  0.33947535    -0.02200
H455        H  0.50926110  0.69802066  0.38749050     0.05200
C456        C  0.50707889  0.70078767  0.27878691     0.20600
H457        H  0.51507544  0.87542015  0.32613664     0.10300
C458        C  0.52342832  0.71082911  0.22836806    -0.15600
C459        C  0.52234272  0.67321324  0.19026090     0.03300
C460        C  0.51587932  0.62123316  0.20369509    -0.10900
C461        C  0.49009943  0.61304603  0.24852275    -0.01000
C462        C  0.49058207  0.64899613  0.28798466    -0.06100
H463        H  0.54136683  0.74636617  0.21839987     0.06300
H464        H  0.46885735  0.57811660  0.25252793     0.09700
Br465      Br  0.48481462  0.82342392  0.23604206    -0.05800
Br466      Br  0.47407473  0.77052966  0.46798317    -0.02800
Br467      Br  0.53257896  0.69214794  0.12025500     0.00100
Br468      Br  0.47365697  0.61678588  0.35108077    -0.04300
C469        C  0.79785882  0.86818265  0.19769235    -0.11700
C470        C  0.79007600  0.85124392  0.24917730     0.03800
C471        C  0.76579169  0.88291677  0.28362671    -0.12200
C472        C  0.72182042  0.90704378  0.26547125     0.18600
C473        C  0.71902474  0.91575268  0.21178177    -0.09300
C474        C  0.76276231  0.90675849  0.18167281    -0.02200
H475        H  0.76712100  0.87160437  0.32340326     0.05200
C476        C  0.67701702  0.90375820  0.30023066     0.20600
H477        H  0.76033954  0.91665525  0.14177189     0.10300
C478        C  0.67324584  0.93393771  0.34486605    -0.15600
C479        C  0.63495538  0.92451453  0.38191920     0.03300
C480        C  0.60220031  0.88182203  0.37661179    -0.10900
C481        C  0.61589389  0.84723428  0.33798997    -0.01000
C482        C  0.64714253  0.85955499  0.29874257    -0.06100
H483        H  0.70146708  0.96280670  0.35258237     0.06300
H484        H  0.60318496  0.80773313  0.33916027     0.09700
Br485      Br  0.65564143  0.91595427  0.17472706    -0.05800
Br486      Br  0.77013530  0.78211693  0.26422019    -0.02800
Br487      Br  0.63838103  0.96101464  0.44508767     0.00100
Br488      Br  0.65040123  0.80759408  0.24981508    -0.04300
C489        C  0.76587576  0.60078079  0.45443928    -0.11700
C490        C  0.77593410  0.63924184  0.49051457     0.03800
C491        C  0.74209258  0.68155646  0.49512093    -0.12200
C492        C  0.69237450  0.68082139  0.47332032     0.18600
C493        C  0.67772478  0.63695238  0.44754656    -0.09300
C494        C  0.71240920  0.59672406  0.44154313    -0.02200
H495        H  0.75483128  0.71523130  0.51560791     0.05200
C496        C  0.66102992  0.72862290  0.46832728     0.20600
H497        H  0.69612211  0.56524136  0.42171078     0.10300
C498        C  0.68420690  0.76844304  0.44278468    -0.15600
C499        C  0.66113215  0.81625308  0.43802610     0.03300
C500        C  0.60772906  0.82377157  0.45039496    -0.10900
C501        C  0.58954666  0.78692275  0.48397815    -0.01000
C502        C  0.61185424  0.73797340  0.48884009    -0.06100
H503        H  0.72311899  0.76336712  0.43005852     0.06300
H504        H  0.55778336  0.79690487  0.50718056     0.09700
Br505      Br  0.61290647  0.63389356  0.41338927    -0.05800
Br506      Br  0.83981020  0.64114945  0.52549643    -0.02800
Br507      Br  0.71560768  0.86560575  0.44067483     0.00100
Br508      Br  0.57127787  0.68985785  0.52537334    -0.04300
C509        C  0.01429490  0.63521874  0.67959875    -0.11700
C510        C  0.02265316  0.69022368  0.67953409     0.03800
C511        C  0.02502068  0.71836783  0.72529363    -0.12200
C512        C  0.01265471  0.69672209  0.77214663     0.18600
C513        C  0.99586155  0.64502313  0.77145680    -0.09300
C514        C  0.99135688  0.61802967  0.72494563    -0.02200
H515        H  0.03258128  0.75921293  0.72369370     0.05200
C516        C  0.01824603  0.72897339  0.82000922     0.20600
H517        H  0.97388269  0.58095975  0.72505641     0.10300
C518        C  0.99410172  0.77754279  0.82592341    -0.15600
C519        C  0.00499046  0.81101558  0.86793978     0.03300
C520        C  0.04493082  0.79925035  0.90367770    -0.10900
C521        C  0.07064481  0.75163943  0.89272801    -0.01000
C522        C  0.05576206  0.71632798  0.85583565    -0.06100
H523        H  0.96866358  0.79115389  0.79599771     0.06300
H524        H  0.10857837  0.74387453  0.90669479     0.09700
Br525      Br  0.98020965  0.60780755  0.83242192    -0.05800
Br526      Br  0.99381339  0.73649426  0.62904745    -0.02800
Br527      Br  0.97496651  0.87816355  0.86455283     0.00100
Br528      Br  0.09738361  0.65625242  0.84924253    -0.04300
C529        C  0.08789272  0.61650551  0.61078132    -0.11700
C530        C  0.13990323  0.60026144  0.60918058     0.03800
C531        C  0.17992753  0.63665831  0.60854941    -0.12200
C532        C  0.16975789  0.68920541  0.60098601     0.18600
C533        C  0.11882969  0.70243325  0.58718815    -0.09300
C534        C  0.07977642  0.66475710  0.58825783    -0.02200
H535        H  0.21877087  0.62397741  0.61581905     0.05200
C536        C  0.21065622  0.72883198  0.61255125     0.20600
H537        H  0.04224691  0.67333254  0.57381199     0.10300
C538        C  0.25378514  0.73775112  0.58181120    -0.15600
C539        C  0.28877815  0.77847292  0.59214558     0.03300
C540        C  0.28734471  0.80555539  0.63869831    -0.10900
C541        C  0.25123930  0.78479918  0.67354193    -0.01000
C542        C  0.20955169  0.75533088  0.65845036    -0.06100
H543        H  0.25900430  0.71566811  0.54795286     0.06300
H544        H  0.25381641  0.79187247  0.71378225     0.09700
Br545      Br  0.09995191  0.77149547  0.56944368    -0.05800
Br546      Br  0.15793575  0.52998184  0.61603214    -0.02800
Br547      Br  0.34029950  0.79257020  0.54373040     0.00100
Br548      Br  0.15265538  0.75295747  0.70324784    -0.04300
C549        C  0.30533163  0.87054277  0.70886686    -0.11700
C550        C  0.25296797  0.88645401  0.70739981     0.03800
C551        C  0.22321873  0.88445512  0.75135587    -0.12200
C552        C  0.24486264  0.87987680  0.80043604     0.18600
C553        C  0.29844702  0.87942374  0.80357805    -0.09300
C554        C  0.32715780  0.87412731  0.75888373    -0.02200
H555        H  0.18227557  0.88926296  0.74726906     0.05200
C556        C  0.20838126  0.87184306  0.84369704     0.20600
H557        H  0.36675274  0.88115953  0.76474789     0.10300
C558        C  0.17443069  0.83186054  0.83578701    -0.15600
C559        C  0.12411230  0.83825426  0.84941510     0.03300
C560        C  0.11009115  0.86799409  0.89274126    -0.10900
C561        C  0.14562240  0.90696216  0.90401741    -0.01000
C562        C  0.19468208  0.90893668  0.88057977    -0.06100
H563        H  0.18246172  0.80460112  0.80586026     0.06300
H564        H  0.13871207  0.92925509  0.93731824     0.09700
Br565      Br  0.33644572  0.88721853  0.86586486    -0.05800
Br566      Br  0.21593168  0.90476884  0.64709161    -0.02800
Br567      Br  0.08468447  0.83917634  0.78792747     0.00100
Br568      Br  0.24589433  0.95180648  0.91063098    -0.04300
C569        C  0.08430108  0.57505025  0.69844471    -0.11700
C570        C  0.07915828  0.53382704  0.73480802     0.03800
C571        C  0.11785359  0.52504538  0.77229643    -0.12200
C572        C  0.16210614  0.55508069  0.77576979     0.18600
C573        C  0.16317949  0.59952931  0.74465490    -0.09300
C574        C  0.12178067  0.61147012  0.71321785    -0.02200
H575        H  0.11263423  0.49506986  0.79975642     0.05200
C576        C  0.20716483  0.54054674  0.80975272     0.20600
H577        H  0.12216879  0.64872691  0.69522178     0.10300
C578        C  0.25503799  0.54544579  0.78866514    -0.15600
C579        C  0.29983505  0.54698823  0.81806606     0.03300
C580        C  0.29858408  0.54457233  0.87344406    -0.10900
C581        C  0.25200358  0.52381063  0.89182589    -0.01000
C582        C  0.20593197  0.52576035  0.86198892    -0.06100
H583        H  0.25729200  0.54682895  0.74752675     0.06300
H584        H  0.24881128  0.51672013  0.93226352     0.09700
Br585      Br  0.22016124  0.64577922  0.73814526    -0.05800
Br586      Br  0.01801349  0.49616018  0.74922595    -0.02800
Br587      Br  0.35418745  0.52960449  0.77235615     0.00100
Br588      Br  0.14333854  0.52058411  0.89818483    -0.04300
C589        C  0.29359433  0.61284706  0.94523141    -0.11700
C590        C  0.24209559  0.62250521  0.92940759     0.03800
C591        C  0.20978268  0.65051666  0.95868393    -0.12200
C592        C  0.22989841  0.69307691  0.98344225     0.18600
C593        C  0.28282786  0.69108877  0.99710094    -0.09300
C594        C  0.31265271  0.64881993  0.98149282    -0.02200
H595        H  0.16980950  0.65014643  0.94742577     0.05200
C596        C  0.19356076  0.73702189  0.98946530     0.20600
H597        H  0.35254353  0.64922669  0.99195409     0.10300
C598        C  0.14232022  0.72630191  0.00123743    -0.15600
C599        C  0.10349794  0.76301590  0.99466135     0.03300
C600        C  0.11444568  0.81206850  0.97344645    -0.10900
C601        C  0.16683480  0.82515997  0.97607771    -0.01000
C602        C  0.20507689  0.78770801  0.97571254    -0.06100
H603        H  0.13180726  0.68816192  0.01384428     0.06300
H604        H  0.17952380  0.86412442  0.97570065     0.09700
Br605      Br  0.31718037  0.73966894  0.04013568    -0.05800
Br606      Br  0.22444345  0.64387635  0.86210122    -0.02800
Br607      Br  0.03692274  0.73949524  0.00873374     0.00100
Br608      Br  0.26870505  0.80813201  0.94771742    -0.04300
C609        C  0.35766881  0.62287488  0.87692975    -0.11700
C610        C  0.39610541  0.61180596  0.84161911     0.03800
C611        C  0.40294337  0.64342137  0.79849288    -0.12200
C612        C  0.37410913  0.68860342  0.79163782     0.18600
C613        C  0.33917040  0.70178045  0.82811727    -0.09300
C614        C  0.33625732  0.67327303  0.87203002    -0.02200
H615        H  0.43152104  0.63308874  0.77138628     0.05200
C616        C  0.38285366  0.72527441  0.74999425     0.20600
H617        H  0.31099626  0.69048861  0.89853140     0.10300
C618        C  0.37155733  0.71142803  0.70011468    -0.15600
C619        C  0.37414592  0.74850886  0.66164876     0.03300
C620        C  0.37522715  0.80192220  0.67507852    -0.10900
C621        C  0.40360109  0.81037693  0.71870796    -0.01000
C622        C  0.40071586  0.77550087  0.75939711    -0.06100
H623        H  0.36591685  0.67135061  0.69066945     0.06300
H624        H  0.42039532  0.84725756  0.72263980     0.09700
Br625      Br  0.28906795  0.75470256  0.81700979    -0.05800
Br626      Br  0.44165118  0.55573832  0.85123276    -0.02800
Br627      Br  0.41559717  0.72288144  0.60777908     0.00100
Br628      Br  0.41481991  0.79996510  0.82683707    -0.04300
C629        C  0.58196481  0.06301741  0.69875944    -0.11700
C630        C  0.59319723  0.09702441  0.74009817     0.03800
C631        C  0.62062699  0.08015924  0.78270099    -0.12200
C632        C  0.65808791  0.04298366  0.77613553     0.18600
C633        C  0.65812328  0.01669668  0.72963018    -0.09300
C634        C  0.61474588  0.02011448  0.69689396    -0.02200
H635        H  0.62447089  0.10583003  0.81478166     0.05200
C636        C  0.70357546  0.04590206  0.81020481     0.20600
H637        H  0.61064215  0.99358235  0.66592696     0.10300
C638        C  0.70834123  0.01681857  0.85501646    -0.15600
C639        C  0.74829270  0.02418574  0.89104681     0.03300
C640        C  0.78086565  0.06832356  0.88671562    -0.10900
C641        C  0.76950264  0.09942782  0.84284450    -0.01000
C642        C  0.73609815  0.08697763  0.80416321    -0.06100
H643        H  0.67951025  0.98932381  0.86384247     0.06300
H644        H  0.78391305  0.13725654  0.83815116     0.09700
Br645      Br  0.72015371  0.98743102  0.70525862    -0.05800
Br646      Br  0.60187592  0.16903751  0.73139611    -0.02800
Br647      Br  0.73864468  0.98322859  0.95149737     0.00100
Br648      Br  0.72960854  0.13501166  0.74867263    -0.04300
C649        C  0.59055604  0.10356590  0.61225879    -0.11700
C650        C  0.64206018  0.08766947  0.61589952     0.03800
C651        C  0.67967313  0.12410255  0.62792681    -0.12200
C652        C  0.66890928  0.17711769  0.62210143     0.18600
C653        C  0.62340615  0.18928872  0.59453999    -0.09300
C654        C  0.58584082  0.15146457  0.58789775    -0.02200
H655        H  0.71743418  0.11044820  0.63808607     0.05200
C656        C  0.70781023  0.21750826  0.63585488     0.20600
H657        H  0.55494360  0.15832478  0.56118474     0.10300
C658        C  0.75982581  0.20839737  0.62948563    -0.15600
C659        C  0.79572421  0.24876969  0.62874801     0.03300
C660        C  0.78178556  0.30138116  0.63915641    -0.10900
C661        C  0.72782207  0.30794937  0.64006629    -0.01000
C662        C  0.69379743  0.26799697  0.64683335    -0.06100
H663        H  0.77186144  0.17047664  0.61788049     0.06300
H664        H  0.71046515  0.34496425  0.64120531     0.09700
Br665      Br  0.61294421  0.25333849  0.55923830    -0.05800
Br666      Br  0.66229933  0.02252984  0.58785971    -0.02800
Br667      Br  0.84302946  0.22930136  0.57851224     0.00100
Br668      Br  0.63264726  0.28613133  0.68082035    -0.04300
C669        C  0.85861218  0.31965388  0.70375584    -0.11700
C670        C  0.88604605  0.27616292  0.69145392     0.03800
C671        C  0.89699586  0.23827078  0.72923184    -0.12200
C672        C  0.88483994  0.24656445  0.78127229     0.18600
C673        C  0.87315181  0.29946258  0.79316755    -0.09300
C674        C  0.86703828  0.33599868  0.75400426    -0.02200
H675        H  0.91745972  0.20442042  0.71812719     0.05200
C676        C  0.88669618  0.20264442  0.82130598     0.20600
H677        H  0.85736135  0.37512043  0.76397726     0.10300
C678        C  0.88796536  0.21390099  0.87325197    -0.15600
C679        C  0.85273011  0.18760132  0.90267611     0.03300
C680        C  0.85185721  0.13298710  0.90104413    -0.10900
C681        C  0.87509251  0.11413089  0.85541502    -0.01000
C682        C  0.88001532  0.14856323  0.81256429    -0.06100
H683        H  0.90443254  0.24850528  0.88790985     0.06300
H684        H  0.87398023  0.07326449  0.84800906     0.09700
Br685      Br  0.85961050  0.32975531  0.85854141    -0.05800
Br686      Br  0.92779701  0.28644786  0.63406209    -0.02800
Br687      Br  0.79051528  0.22324213  0.88955803     0.00100
Br688      Br  0.86043718  0.12075100  0.74775565    -0.04300
C689        C  0.49899735  0.31429102  0.85890215    -0.11700
C690        C  0.50654959  0.26005888  0.86145532     0.03800
C691        C  0.51057149  0.23138213  0.81799597    -0.12200
C692        C  0.49275215  0.24899889  0.77071426     0.18600
C693        C  0.47234684  0.30012414  0.76968048    -0.09300
C694        C  0.47364488  0.33041530  0.81442064    -0.02200
H695        H  0.52681583  0.19330001  0.82260830     0.05200
C696        C  0.48968364  0.20735414  0.73062321     0.20600
H697        H  0.45351893  0.36632879  0.81523950     0.10300
C698        C  0.47962218  0.15651335  0.74819311    -0.15600
C699        C  0.48654591  0.11312973  0.71835997     0.03300
C700        C  0.50802166  0.11911664  0.66977480    -0.10900
C701        C  0.50069064  0.16782071  0.64800618    -0.01000
C702        C  0.50028658  0.21205848  0.67795315    -0.06100
H703        H  0.46703466  0.14955055  0.78632858     0.06300
H704        H  0.49568301  0.17214718  0.60773877     0.09700
Br705      Br  0.44160553  0.33398852  0.71228798    -0.05800
Br706      Br  0.50407062  0.21722150  0.92005266    -0.02800
Br707      Br  0.47328645  0.04791747  0.75043524     0.00100
Br708      Br  0.51306132  0.27345070  0.64042061    -0.04300
C709        C  0.76747009  0.12819433  0.96044719    -0.11700
C710        C  0.77430301  0.17463975  0.98808046     0.03800
C711        C  0.73332775  0.21135226  0.99065242    -0.12200
C712        C  0.68343377  0.20049178  0.97151414     0.18600
C713        C  0.67536969  0.15136940  0.95254418    -0.09300
C714        C  0.71489359  0.11569640  0.95239359    -0.02200
H715        H  0.74174089  0.24946109  0.00451372     0.05200
C716        C  0.64533651  0.24214961  0.95822024     0.20600
H717        H  0.70185240  0.07868835  0.94265329     0.10300
C718        C  0.64827585  0.26074286  0.90915092    -0.15600
C719        C  0.61166750  0.29390559  0.88824359     0.03300
C720        C  0.57291884  0.31720703  0.91917470    -0.10900
C721        C  0.56870418  0.29614805  0.96826154    -0.01000
C722        C  0.59951472  0.25383802  0.98386759    -0.06100
H723        H  0.67534019  0.24252480  0.88433907     0.06300
H724        H  0.53494991  0.30411393  0.98989525     0.09700
Br725      Br  0.61145977  0.13065000  0.92224208    -0.05800
Br726      Br  0.84027928  0.19442535  0.01357156    -0.02800
Br727      Br  0.61156304  0.29176435  0.81499007     0.00100
Br728      Br  0.56519166  0.20431420  0.02516196    -0.04300
C729        C  0.56140525  0.39475818  0.86413087    -0.11700
C730        C  0.55870685  0.40494401  0.81106098     0.03800
C731        C  0.60386504  0.40809703  0.78354501    -0.12200
C732        C  0.65188135  0.40681811  0.80832161     0.18600
C733        C  0.65214688  0.41204242  0.86265388    -0.09300
C734        C  0.60610114  0.41169556  0.88864316    -0.02200
H735        H  0.60110302  0.41162389  0.74256919     0.05200
C736        C  0.69790808  0.39872685  0.77575400     0.20600
H737        H  0.60739068  0.41273255  0.92983747     0.10300
C738        C  0.70336569  0.42448949  0.72880352    -0.15600
C739        C  0.74330542  0.41253302  0.69480557     0.03300
C740        C  0.77695325  0.37049787  0.70551108    -0.10900
C741        C  0.76194592  0.33946706  0.74694311    -0.01000
C742        C  0.72948550  0.35645341  0.78395062    -0.06100
H743        H  0.67564747  0.45324996  0.71816427     0.06300
H744        H  0.77691864  0.30088012  0.75157973     0.09700
Br745      Br  0.71006278  0.41938925  0.90764132    -0.05800
Br746      Br  0.50298989  0.44216760  0.77993680    -0.02800
Br747      Br  0.73817826  0.44361976  0.62878194     0.00100
Br748      Br  0.73065354  0.31780289  0.84355837    -0.04300
C749        C  0.27018044  0.82700640  0.43452821    -0.11700
C750        C  0.24401633  0.82621652  0.48136265     0.03800
C751        C  0.20918705  0.78634633  0.49187064    -0.12200
C752        C  0.20464973  0.74251249  0.46109561     0.18600
C753        C  0.23026488  0.74343500  0.41522432    -0.09300
C754        C  0.25675818  0.78680322  0.40035167    -0.02200
H755        H  0.18672723  0.78961986  0.52523104     0.05200
C756        C  0.16281436  0.70395430  0.46742130     0.20600
H757        H  0.26959718  0.78748761  0.36145841     0.10300
C758        C  0.12066127  0.71198137  0.43576636    -0.15600
C759        C  0.09663214  0.66904602  0.41567455     0.03300
C760        C  0.09058136  0.62301533  0.44525949    -0.10900
C761        C  0.12784234  0.61801397  0.48432742    -0.01000
C762        C  0.16912772  0.65346455  0.48754379    -0.06100
H763        H  0.11827179  0.74770256  0.41442535     0.06300
H764        H  0.12906503  0.58384276  0.50708909     0.09700
Br765      Br  0.22594967  0.68798213  0.36885971    -0.05800
Br766      Br  0.24625512  0.88007774  0.53020001    -0.02800
Br767      Br  0.09891493  0.66954085  0.34318511     0.00100
Br768      Br  0.23568906  0.62575044  0.50232175    -0.04300
C769        C  0.00871642  0.79241291  0.18742258    -0.11700
C770        C  0.98178371  0.74589751  0.17982650     0.03800
C771        C  0.97057132  0.71295127  0.22165210    -0.12200
C772        C  0.98806779  0.72223642  0.27221483     0.18600
C773        C  0.00564923  0.77355184  0.28020442    -0.09300
C774        C  0.00889575  0.80882724  0.23901976    -0.02200
H775        H  0.95009367  0.67846559  0.21294453     0.05200
C776        C  0.98615441  0.67988614  0.31440638     0.20600
H777        H  0.02135939  0.84739583  0.24786494     0.10300
C778        C  0.97977797  0.69189578  0.36691614    -0.15600
C779        C  0.99116291  0.65535022  0.40630190     0.03300
C780        C  0.01049914  0.60568652  0.39396666    -0.10900
C781        C  0.99236453  0.59057609  0.34666231    -0.01000
C782        C  0.98963511  0.62555389  0.30518804    -0.06100
H783        H  0.96600454  0.72920270  0.37791793     0.06300
H784        H  0.98825256  0.55058473  0.34043826     0.09700
Br785      Br  0.02921681  0.80017110  0.34438717    -0.05800
Br786      Br  0.96880655  0.71778012  0.11420319    -0.02800
Br787      Br  0.98192373  0.67499674  0.47563567     0.00100
Br788      Br  0.99066869  0.59247347  0.23986424    -0.04300
C789        C  0.27039898  0.90007509  0.37405460    -0.11700
C790        C  0.21551931  0.90449695  0.37785295     0.03800
C791        C  0.18444949  0.90499147  0.33421041    -0.12200
C792        C  0.20503621  0.89834674  0.28626509     0.18600
C793        C  0.25730354  0.90323342  0.28112747    -0.09300
C794        C  0.28701264  0.91016471  0.32480901    -0.02200
H795        H  0.14324470  0.90460011  0.33788229     0.05200
C796        C  0.17161343  0.87834089  0.24579925     0.20600
H797        H  0.32447312  0.92280915  0.31945279     0.10300
C798        C  0.16265647  0.90404742  0.19983020    -0.15600
C799        C  0.12266391  0.88929738  0.16663062     0.03300
C800        C  0.09063359  0.84630026  0.17971744    -0.10900
C801        C  0.11141880  0.81540193  0.21980620    -0.01000
C802        C  0.14706551  0.83222268  0.25417323    -0.06100
H803        H  0.18622766  0.93638803  0.19010908     0.06300
H804        H  0.09799194  0.77726360  0.22673264     0.09700
Br805      Br  0.29030846  0.90025906  0.21654979    -0.05800
Br806      Br  0.17404979  0.90955821  0.43645705    -0.02800
Br807      Br  0.12219460  0.92937089  0.10524443     0.00100
Br808      Br  0.16212360  0.78823087  0.31076343    -0.04300
C809        C  0.37589005  0.61614283  0.21337169    -0.11700
C810        C  0.39589825  0.66587801  0.20220057     0.03800
C811        C  0.39722106  0.70418106  0.24022269    -0.12200
C812        C  0.37765607  0.69629767  0.29000864     0.18600
C813        C  0.36387362  0.64456221  0.30102933    -0.09300
C814        C  0.37237171  0.60604507  0.26562606    -0.02200
H815        H  0.41209483  0.74086718  0.22894949     0.05200
C816        C  0.37178486  0.74257195  0.32568460     0.20600
H817        H  0.37203156  0.56784808  0.27996111     0.10300
C818        C  0.36666877  0.79226641  0.30374405    -0.15600
C819        C  0.36403651  0.83672978  0.33347655     0.03300
C820        C  0.34978466  0.83360918  0.38473387    -0.10900
C821        C  0.36549513  0.78704541  0.40793568    -0.01000
C822        C  0.37580724  0.74204701  0.38007616    -0.06100
H823        H  0.36847948  0.79840965  0.26327930     0.06300
H824        H  0.36333955  0.78365416  0.44825295     0.09700
Br825      Br  0.32609456  0.61735885  0.35666403    -0.05800
Br826      Br  0.40777585  0.68944463  0.13403447    -0.02800
Br827      Br  0.41034294  0.88989559  0.31361524     0.00100
Br828      Br  0.39597965  0.68548538  0.42296670    -0.04300
C829        C  0.09923477  0.54786283  0.38903429    -0.11700
C830        C  0.14884317  0.53023570  0.40751557     0.03800
C831        C  0.19154524  0.52883880  0.37513305    -0.12200
C832        C  0.18582233  0.53612401  0.32277655     0.18600
C833        C  0.13586000  0.53885732  0.30300993    -0.09300
C834        C  0.09544057  0.54675089  0.33527877    -0.02200
H835        H  0.22922357  0.52093081  0.39085954     0.05200
C836        C  0.22989830  0.54367402  0.28831717     0.20600
H837        H  0.06233858  0.55321914  0.31373491     0.10300
C838        C  0.27281721  0.51062916  0.28567461    -0.15600
C839        C  0.30782146  0.51558693  0.24474641     0.03300
C840        C  0.29844975  0.55357409  0.20565060    -0.10900
C841        C  0.24783153  0.57182228  0.20486159    -0.01000
C842        C  0.22408835  0.57991665  0.24974828    -0.06100
H843        H  0.27882971  0.48121738  0.31428540     0.06300
H844        H  0.22984018  0.59086927  0.17322755     0.09700
Br845      Br  0.11824522  0.53499706  0.23097400    -0.05800
Br846      Br  0.16403284  0.49819466  0.47191480    -0.02800
Br847      Br  0.36696005  0.47153688  0.24705730     0.00100
Br848      Br  0.18503786  0.64166269  0.25435735    -0.04300
C849        C  0.30787074  0.62916637  0.14570083    -0.11700
C850        C  0.27829702  0.62061287  0.10072744     0.03800
C851        C  0.23592716  0.65217223  0.09008182    -0.12200
C852        C  0.22730251  0.69823766  0.11626775     0.18600
C853        C  0.25723867  0.70853041  0.15897217    -0.09300
C854        C  0.29221890  0.67232211  0.17523325    -0.02200
H855        H  0.20815013  0.63947328  0.06214817     0.05200
C856        C  0.17851064  0.72540273  0.10895492     0.20600
H857        H  0.30259727  0.67574864  0.21476722     0.10300
C858        C  0.13504539  0.69729502  0.11870833    -0.15600
C859        C  0.09225524  0.72302518  0.13602951     0.03300
C860        C  0.08319871  0.77646147  0.12190240    -0.10900
C861        C  0.12371050  0.79840247  0.09442120    -0.01000
C862        C  0.17310142  0.77809655  0.09838746    -0.06100
H863        H  0.13940751  0.65625344  0.12553759     0.06300
H864        H  0.11896563  0.83546060  0.07755773     0.09700
Br865      Br  0.24399980  0.76348067  0.20517246    -0.05800
Br866      Br  0.28217157  0.56085450  0.05935274    -0.02800
Br867      Br  0.07510149  0.68333643  0.19453437     0.00100
Br868      Br  0.22940447  0.82430819  0.09045613    -0.04300
C869        C  0.29433332  0.35251748  0.88341897    -0.11700
C870        C  0.29454275  0.40356158  0.86562132     0.03800
C871        C  0.25542663  0.42016275  0.83167645    -0.12200
C872        C  0.21532464  0.38815221  0.81599922     0.18600
C873        C  0.21681636  0.33685356  0.83070347    -0.09300
C874        C  0.25605490  0.31967046  0.86149563    -0.02200
H875        H  0.26101461  0.45435207  0.81051266     0.05200
C876        C  0.17730510  0.40386013  0.77682302     0.20600
H877        H  0.25799438  0.27842117  0.86633391     0.10300
C878        C  0.19213666  0.41068676  0.72682509    -0.15600
C879        C  0.15701700  0.40548276  0.68618673     0.03300
C880        C  0.10362054  0.39347550  0.69492041    -0.10900
C881        C  0.09014057  0.39828339  0.74673051    -0.01000
C882        C  0.12554965  0.40022630  0.78673511    -0.06100
H883        H  0.23246391  0.41468517  0.71915471     0.06300
H884        H  0.05215561  0.40018862  0.75890148     0.09700
Br885      Br  0.17188561  0.28565426  0.80294037    -0.05800
Br886      Br  0.35742050  0.43945110  0.86128530    -0.02800
Br887      Br  0.19201490  0.40840813  0.62283532     0.00100
Br888      Br  0.10171923  0.39647068  0.85542324    -0.04300
C889        C  0.30322716  0.28571431  0.94849788    -0.11700
C890        C  0.25544398  0.30320812  0.96846859     0.03800
C891        C  0.21305854  0.26965888  0.97075129    -0.12200
C892        C  0.21793181  0.21644514  0.96212586     0.18600
C893        C  0.26620069  0.19751111  0.95057033    -0.09300
C894        C  0.30748326  0.23089651  0.94588871    -0.02200
H895        H  0.17595459  0.28554383  0.97900059     0.05200
C896        C  0.17179980  0.18321871  0.95569281     0.20600
H897        H  0.34257966  0.21085994  0.94276909     0.10300
C898        C  0.14921034  0.18338951  0.90787571    -0.15600
C899        C  0.11330374  0.14648687  0.89429007     0.03300
C900        C  0.08753139  0.11600758  0.93219611    -0.10900
C901        C  0.10779163  0.11994546  0.98189648    -0.01000
C902        C  0.15469005  0.14585422  0.99077452    -0.06100
H903        H  0.16543767  0.20740927  0.87867823     0.06300
H904        H  0.09437031  0.09360169  0.01056147     0.09700
Br905      Br  0.27708178  0.12645454  0.93403510    -0.05800
Br906      Br  0.24269018  0.37482587  0.98291813    -0.02800
Br907      Br  0.11220818  0.13582221  0.82220051     0.00100
Br908      Br  0.19902883  0.11770024  0.04249711    -0.04300
C909        C  0.03262477  0.31851833  0.68665334    -0.11700
C910        C  0.03460901  0.26375716  0.67856870     0.03800
C911        C  0.03062097  0.22854420  0.71894505    -0.12200
C912        C  0.01230767  0.24114271  0.76709391     0.18600
C913        C  0.99993669  0.29486915  0.77213610    -0.09300
C914        C  0.00372364  0.32985083  0.73014257    -0.02200
H915        H  0.04428636  0.19061155  0.71170999     0.05200
C916        C  0.00442853  0.19674620  0.80684384     0.20600
H917        H  0.98675617  0.36759931  0.73334696     0.10300
C918        C  0.00469169  0.20496416  0.86016236    -0.15600
C919        C  0.99965695  0.16436167  0.89613466     0.03300
C920        C  0.00732631  0.11201993  0.88235339    -0.10900
C921        C  0.99695521  0.10369201  0.83005915    -0.01000
C922        C  0.99561934  0.14379678  0.79308262    -0.06100
H923        H  0.00931855  0.24247872  0.87576891     0.06300
H924        H  0.98924938  0.06596895  0.81623284     0.09700
Br925      Br  0.98537017  0.32847713  0.83473807    -0.05800
Br926      Br  0.03790891  0.23082120  0.61311486    -0.02800
Br927      Br  0.98438618  0.18247454  0.96453264     0.00100
Br928      Br  0.98197273  0.11859247  0.72538397    -0.04300
C929        C  0.32182648  0.09346172  0.69607951    -0.11700
C930        C  0.30501967  0.10321373  0.74738321     0.03800
C931        C  0.33600785  0.12949336  0.78122803    -0.12200
C932        C  0.36842240  0.16677549  0.76244359     0.18600
C933        C  0.37841955  0.16532030  0.70874220    -0.09300
C934        C  0.36433034  0.12188350  0.68060543    -0.02200
H935        H  0.32315567  0.13284240  0.82003635     0.05200
C936        C  0.37734846  0.21141966  0.79745064     0.20600
H937        H  0.37537076  0.11999820  0.64111947     0.10300
C938        C  0.35900242  0.25865258  0.78226519    -0.15600
C939        C  0.35580135  0.30022248  0.81495084     0.03300
C940        C  0.36619456  0.29459587  0.86958764    -0.10900
C941        C  0.39381042  0.24992672  0.88151352    -0.01000
C942        C  0.39458986  0.20666688  0.84860713    -0.06100
H943        H  0.34358141  0.26298232  0.74445554     0.06300
H944        H  0.40798689  0.24627682  0.92000012     0.09700
Br945      Br  0.38826905  0.22425369  0.66501078    -0.05800
Br946      Br  0.23574468  0.11001942  0.77030115    -0.02800
Br947      Br  0.33684785  0.35825691  0.77254345     0.00100
Br948      Br  0.41305567  0.14060803  0.87723403    -0.04300
C949        C  0.10850357  0.32520611  0.63040995    -0.11700
C950        C  0.12311510  0.32097192  0.57885089     0.03800
C951        C  0.15425250  0.27914281  0.56446475    -0.12200
C952        C  0.16490999  0.23735584  0.59724739     0.18600
C953        C  0.15322101  0.24398683  0.64832909    -0.09300
C954        C  0.13418572  0.29076437  0.66471247    -0.02200
H955        H  0.16932737  0.27956451  0.52727892     0.05200
C956        C  0.20096741  0.19484590  0.58417597     0.20600
H957        H  0.12837529  0.29444286  0.70506682     0.10300
C958        C  0.25161392  0.20364083  0.59720119    -0.15600
C959        C  0.27366432  0.16699773  0.62951058     0.03300
C960        C  0.26444492  0.11236915  0.62126565    -0.10900
C961        C  0.22505093  0.10375964  0.58489775    -0.01000
C962        C  0.18710167  0.14270622  0.57747718    -0.06100
H963        H  0.26352880  0.24344804  0.60076664     0.06300
H964        H  0.21708691  0.06493283  0.57286162     0.09700
Br965      Br  0.14954789  0.18706768  0.69465643    -0.05800
Br966      Br  0.11632613  0.37518302  0.52958858    -0.02800
Br967      Br  0.27018968  0.20280954  0.69340691     0.00100
Br968      Br  0.11724803  0.12293602  0.56741255    -0.04300
C969        C  0.07539850  0.03375312  0.88588487    -0.11700
C970        C  0.12894724  0.02844961  0.89242395     0.03800
C971        C  0.15955442  0.02156947  0.85010185    -0.12200
C972        C  0.13875182  0.00546915  0.80338520     0.18600
C973        C  0.08605361  0.99183481  0.80325675    -0.09300
C974        C  0.05517008  0.00525790  0.84500152    -0.02200
H975        H  0.19972572  0.02975895  0.85421051     0.05200
C976        C  0.17330297  0.00493841  0.75765326     0.20600
H977        H  0.01521513  0.99510315  0.84450651     0.10300
C978        C  0.22573078  0.99245258  0.76378943    -0.15600
C979        C  0.26234962  0.00275056  0.72617221     0.03300
C980        C  0.24833074  0.03210239  0.68231833    -0.10900
C981        C  0.19495198  0.03787162  0.67395481    -0.01000
C982        C  0.15874357  0.02735810  0.71086658    -0.06100
H983        H  0.23966216  0.97812796  0.79988166     0.06300
H984        H  0.17839857  0.05547726  0.64153062     0.09700
Br985      Br  0.05330100  0.95556738  0.74857822    -0.05800
Br986      Br  0.16119993  0.02449292  0.95844645    -0.02800
Br987      Br  0.33295854  0.98875716  0.74415014     0.00100
Br988      Br  0.09445675  0.06057332  0.69843026    -0.04300
C989        C  0.00927157  0.33202378  0.35491685    -0.11700
C990        C  0.01648031  0.33233329  0.30109034     0.03800
C991        C  0.02835514  0.28708617  0.27506058    -0.12200
C992        C  0.01517365  0.23878742  0.29423236     0.18600
C993        C  0.99942533  0.23809022  0.34601110    -0.09300
C994        C  0.99138147  0.28442943  0.37244982    -0.02200
H995        H  0.04092923  0.29059422  0.23632159     0.05200
C996        C  0.01600607  0.19216907  0.25897464     0.20600
H997        H  0.98149335  0.28167735  0.41155598     0.10300
C998        C  0.03479000  0.14539227  0.27707307    -0.15600
C999        C  0.03569485  0.10051504  0.24771660     0.03300
C1000       C  0.02736932  0.10271718  0.19361588    -0.10900
C1001       C  0.99998493  0.14725028  0.17753410    -0.01000
C1002       C  0.99698426  0.19199281  0.20782744    -0.06100
H1003       H  0.04908151  0.14277593  0.31523263     0.06300
H1004       H  0.98802221  0.15050626  0.13810986     0.09700
Br1005     Br  0.99875350  0.17872474  0.38992256    -0.05800
Br1006     Br  0.96609529  0.36418444  0.25768055    -0.02800
Br1007     Br  0.02165611  0.04331405  0.29186846     0.00100
Br1008     Br  0.97122040  0.25174782  0.17309478    -0.04300
C1009       C  0.26901052  0.11698919  0.46669296    -0.11700
C1010       C  0.21737270  0.09959998  0.46690831     0.03800
C1011       C  0.17550593  0.13512400  0.46167644    -0.12200
C1012       C  0.18381690  0.18882790  0.46118289     0.18600
C1013       C  0.23401748  0.20441191  0.47473892    -0.09300
C1014       C  0.27239368  0.16709994  0.48559978    -0.02200
H1015       H  0.13723999  0.12065756  0.45583159     0.05200
C1016       C  0.14276127  0.22791693  0.44429855     0.20600
H1017       H  0.30722572  0.17799014  0.50419704     0.10300
C1018       C  0.09915444  0.24081503  0.47303103    -0.15600
C1019       C  0.06865294  0.28574157  0.46217042     0.03300
C1020       C  0.07865167  0.31809188  0.41916852    -0.10900
C1021       C  0.11559188  0.29617530  0.38592614    -0.01000
C1022       C  0.14870318  0.25544832  0.39908984    -0.06100
H1023       H  0.09060244  0.21793611  0.50619213     0.06300
H1024       H  0.11931806  0.31156694  0.34821055     0.09700
Br1025     Br  0.25331464  0.27573370  0.47706944    -0.05800
Br1026     Br  0.20362039  0.02822247  0.46905120    -0.02800
Br1027     Br  0.01304409  0.29872255  0.50675638     0.00100
Br1028     Br  0.20117690  0.23671207  0.35269577    -0.04300
C1029       C  0.28279906  0.07061476  0.37962589    -0.11700
C1030       C  0.30011235  0.03544441  0.34060120     0.03800
C1031       C  0.26737025  0.02178349  0.29897387    -0.12200
C1032       C  0.21561697  0.03595185  0.29614403     0.18600
C1033       C  0.20036149  0.07118263  0.33303285    -0.09300
C1034       C  0.23665795  0.09499123  0.36427019    -0.02200
H1035       H  0.28287295  0.99970044  0.26826213     0.05200
C1036       C  0.18151191  0.02349553  0.25023833     0.20600
H1037       H  0.22630956  0.13162030  0.37957943     0.10300
C1038       C  0.13209435  0.00167538  0.25510709    -0.15600
C1039       C  0.09552905  0.00496219  0.21441634     0.03300
C1040       C  0.10472748  0.03860671  0.17408292    -0.10900
C1041       C  0.15699376  0.04350790  0.16218610    -0.01000
C1042       C  0.19520376  0.03809851  0.20016587    -0.06100
H1043       H  0.12189034  0.98246643  0.28997395     0.06300
H1044       H  0.16753399  0.05966703  0.12608690     0.09700
Br1045     Br  0.13118161  0.08517735  0.34854504    -0.05800
Br1046     Br  0.36828917  0.01049623  0.32935670    -0.02800
Br1047     Br  0.03669487  0.96027272  0.20954419     0.00100
Br1048     Br  0.26195285  0.06167903  0.18271124    -0.04300
C1049       C  0.34593964  0.13993190  0.40541148    -0.06900
C1050       C  0.33803551  0.19439517  0.41127024     0.03800
C1051       C  0.32940016  0.22622759  0.36872189    -0.12200
C1052       C  0.33992207  0.20893543  0.31990803     0.18600
C1053       C  0.36032149  0.15860811  0.31588571    -0.09300
C1054       C  0.36989430  0.12922560  0.35981342    -0.02200
H1055       H  0.31934135  0.26612179  0.37442861     0.05200
C1056       C  0.33476566  0.24446094  0.27488495     0.20600
H1057       H  0.39453088  0.09681483  0.35833622     0.10300
C1058       C  0.30930484  0.22623795  0.23212056    -0.15600
C1059       C  0.31896045  0.24654733  0.18396081     0.03300
C1060       C  0.33833132  0.29848767  0.17805680    -0.10900
C1061       C  0.36169368  0.31808951  0.22329051    -0.01000
C1062       C  0.36038031  0.29205829  0.27054901    -0.06100
H1063       H  0.28936903  0.18990152  0.23509314     0.06300
H1064       H  0.37721683  0.35639974  0.22347128     0.09700
Br1065     Br  0.37409117  0.12502110  0.25314414    -0.05800
Br1066     Br  0.37427339  0.23373739  0.46264198    -0.02800
Br1067     Br  0.33367481  0.18695282  0.14341993     0.00100
Br1068     Br  0.39604286  0.32348158  0.32655987    -0.04300
C1069       C  0.08159772  0.40177346  0.36709583    -0.11700
C1070       C  0.07081266  0.42352862  0.31887895     0.03800
C1071       C  0.10733925  0.42166150  0.28033963    -0.12200
C1072       C  0.15820430  0.40928886  0.29200173     0.18600
C1073       C  0.17203570  0.40348841  0.34382727    -0.09300
C1074       C  0.13406044  0.40292036  0.38126990    -0.02200
H1075       H  0.09586381  0.42957132  0.24139885     0.05200
C1076       C  0.19459062  0.39577730  0.25085517     0.20600
H1077       H  0.14557960  0.39317912  0.41978309     0.10300
C1078       C  0.21923988  0.43223494  0.22025695    -0.15600
C1079       C  0.25750044  0.41756589  0.18544905     0.03300
C1080       C  0.27389420  0.36613441  0.18231798    -0.10900
C1081       C  0.24060529  0.33050358  0.20645682    -0.01000
C1082       C  0.20168188  0.34452455  0.23837853    -0.06100
H1083       H  0.20594553  0.47130520  0.22032627     0.06300
H1084       H  0.23926643  0.29117847  0.19457353     0.09700
Br1085     Br  0.24076400  0.38738320  0.36444389    -0.05800
Br1086     Br  0.01005284  0.46158423  0.30641969    -0.02800
Br1087     Br  0.26944591  0.46218989  0.13062130     0.00100
Br1088     Br  0.15071058  0.29400714  0.25012489    -0.04300
C1089       C  0.27448467  0.32163079  0.10023264    -0.11700
C1090       C  0.28261728  0.27418668  0.07844266     0.03800
C1091       C  0.24201934  0.23898331  0.07563523    -0.12200
C1092       C  0.19105304  0.25400754  0.08607841     0.18600
C1093       C  0.18186922  0.30647710  0.09348360    -0.09300
C1094       C  0.22317326  0.34022390  0.09606640    -0.02200
H1095       H  0.25128435  0.20003121  0.06654742     0.05200
C1096       C  0.15282213  0.21442170  0.10128544     0.20600
H1097       H  0.21394243  0.37946064  0.10432864     0.10300
C1098       C  0.16352618  0.18930739  0.14631500    -0.15600
C1099       C  0.13201431  0.15100412  0.16452347     0.03300
C1100       C  0.09371286  0.12653800  0.13266319    -0.10900
C1101       C  0.07928231  0.15648887  0.08940065    -0.01000
C1102       C  0.10665665  0.20190727  0.07561478    -0.06100
H1103       H  0.19569437  0.20222438  0.16937174     0.06300
H1104       H  0.04580954  0.14587673  0.06738411     0.09700
Br1105     Br  0.11648214  0.33298737  0.11259604    -0.05800
Br1106     Br  0.34868751  0.25956779  0.05195853    -0.02800
Br1107     Br  0.14557134  0.14197979  0.23523235     0.00100
Br1108     Br  0.08113494  0.24520662  0.02184648    -0.04300
loop_ 
_geom_bond_atom_site_label_1 
_geom_bond_atom_site_label_2 
_geom_bond_distance 
_geom_bond_site_symmetry_2 
_ccdc_geom_bond_type 
C1           C17   1.647       .  S
C1         C1060   1.616       .  S
C1         C1080   1.596       .  S
C1         C1089   1.572       .  S
C2           C50   1.653       .  S
C2         C1009   1.632       .  S
C2         C1029   1.637       .  S
C2         C1049   1.618       .  S
C3          C114   1.642       .  S
C3         C1000   1.613       .  S
C3         C1040   1.581       .  S
C3         C1100   1.611       .  S
C4          C147   1.656       .  S
C4          C989   1.617       .  S
C4         C1020   1.636       .  S
C4         C1069   1.593       .  S
C5           C52   1.633       .  S
C5          C929   1.568       .  S
C5          C960   1.620       .  S
C5          C980   1.584       .  S
C6           C95   1.632       .  S
C6          C900   1.596       .  S
C6          C920   1.620       .  S
C6          C969   1.585       .  S
C7          C145   1.644       .  S
C7          C880   1.617       .  S
C7          C909   1.656       .  S
C7          C949   1.577       .  S
C8           C20   1.668       .  S
C8          C869   1.568       .  S
C8          C889   1.615       .  S
C8          C940   1.620       .  S
O9           C17   1.289       .  A
O9          Co29   2.116       .  S
O10          C18   1.292       .  A
O10         Co30   2.076   1_556  S
O11          C19   1.267       .  A
O11         Co31   2.009       .  S
O12          C20   1.321       .  A
O12         Co32   2.195       .  S
O13          C19   1.269       .  A
O13         Co30   2.029       .  S
O14          C20   1.285       .  A
O14         Co29   2.010   1_556  S
O15          C18   1.285       .  A
O15         Co32   2.072       .  S
O16          C17   1.267       .  A
O16         Co31   2.053       .  S
C18          C75   1.647       .  S
C19          C38   1.569       .  S
O21          C34   1.312       .  A
O21         Co29   2.139   1_556  S
O22          C35   1.281       .  A
O22         Co30   2.089       .  S
O23          C36   1.262       .  A
O23         Co31   1.990       .  S
O24          C37   1.304       .  A
O24         Co32   2.176       .  S
O25          C37   1.254       .  A
O25         Co30   1.998   1_556  S
O26          C36   1.308       .  A
O26         Co29   2.134       .  S
O27          C34   1.280       .  A
O27         Co32   1.945       .  S
O28          C35   1.269       .  A
O28         Co31   2.013       .  S
Co29         O33   2.161       .  S
Co30         O33   2.187       .  S
Co31         O33   2.172       .  S
Co32         O33   2.147   1_556  S
C34          C71   1.590       .  S
C35          C81   1.599       .  S
C36         C118   1.614       .  S
C37          C83   1.658       .  S
C38         C809   1.592       .  S
C38         C840   1.601       .  S
C38         C849   1.581       .  S
C39         C113   1.642       .  S
C39         C769   1.615       .  S
C39         C800   1.597       .  S
C39         C860   1.586       .  S
C40         C128   1.623       .  S
C40         C760   1.593       .  S
C40         C780   1.628       .  S
C40         C829   1.621       .  S
C41          C69   1.614       .  S
C41         C749   1.583       .  S
C41         C789   1.603       .  S
C41         C820   1.626       .  S
O42          C50   1.268       .  A
O42         Co62   2.068   1_545  S
O43          C51   1.274       .  A
O43         Co63   2.035   1_545  S
O44          C52   1.292       .  A
O44         Co64   1.978   1_545  S
O45          C53   1.265       .  A
O45         Co65   2.020   1_545  S
O46          C52   1.329       .  A
O46         Co63   2.189   1_545  S
O47          C53   1.274       .  A
O47         Co62   2.027   1_545  S
O48          C51   1.266       .  A
O48         Co65   1.995   1_545  S
O49          C50   1.284       .  A
O49         Co64   2.103   1_545  S
C51          C73   1.561       .  S
C53         C116   1.583       .  S
O54          C67   1.285       .  A
O54         Co62   2.082       .  S
O55          C68   1.264       .  A
O55         Co63   2.014       .  S
O56          C69   1.297       .  A
O56         Co64   2.114       .  S
O57          C70   1.269       .  A
O57         Co65   2.050       .  S
O58          C70   1.297       .  A
O58         Co63   2.112       .  S
O59          C69   1.282       .  A
O59         Co62   2.017       .  S
O60          C67   1.264       .  A
O60         Co65   2.016       .  S
O61          C68   1.295       .  A
O61         Co64   2.144       .  S
Co62         O66   2.159       .  S
Co63         O66   2.156       .  S
Co64         O66   2.129       .  S
Co65         O66   2.186       .  S
C67          C79   1.599       .  S
C68          C76   1.633       .  S
C70          C85   1.638       .  S
C71         C689   1.589       .  S
C71         C720   1.591       .  S
C71         C729   1.573       .  S
C72         C148   1.609       .  S
C72         C660   1.633       .  S
C72         C669   1.585       .  S
C72         C740   1.591       .  S
C73         C629   1.591       .  S
C73         C649   1.599       .  S
C73         C700   1.567       .  S
C74          C98   1.624       .  S
C74         C640   1.606       .  S
C74         C680   1.628       .  S
C74         C709   1.619       .  S
C75         C580   1.625       .  S
C75         C589   1.587       .  S
C75         C609   1.585       .  S
C76         C540   1.604       .  S
C76         C549   1.633       .  S
C76         C620   1.597       .  S
C77         C131   1.649       .  S
C77         C509   1.624       .  S
C77         C529   1.610       .  S
C77         C569   1.614       .  S
C78          C97   1.661       .  S
C78         C520   1.620       .  S
C78         C560   1.615       .  S
C78         C600   1.593       .  S
C79         C449   1.586       .  S
C79         C480   1.567       .  S
C79         C500   1.608       .  S
C80         C130   1.631       .  S
C80         C409   1.563       .  S
C80         C429   1.594       .  S
C80         C489   1.621       .  S
C81         C389   1.596       .  S
C81         C420   1.578       .  S
C81         C460   1.566       .  S
C82         C115   1.645       .  S
C82         C400   1.618       .  S
C82         C440   1.611       .  S
C82         C469   1.599       .  S
C83         C329   1.601       .  S
C83         C349   1.622       .  S
C83         C380   1.605       .  S
C84         C129   1.601       .  S
C84         C289   1.600       .  S
C84         C309   1.590       .  S
C84         C360   1.558       .  S
C85         C269   1.597       .  S
C85         C300   1.620       .  S
C85         C340   1.610       .  S
C86          C96   1.632       .  S
C86         C280   1.602       .  S
C86         C320   1.607       .  S
C86         C369   1.586       .  S
O87          C95   1.267   1_655  A
O87        Co107   2.051   1_556  S
O88          C96   1.299   1_554  A
O88        Co108   2.110       .  S
O89          C97   1.290   1_554  A
O89        Co109   2.017       .  S
O90          C98   1.274       .  A
O90        Co110   2.070   1_546  S
O91          C97   1.316   1_655  A
O91        Co108   2.179   1_556  S
O92          C98   1.276       .  A
O92        Co107   2.058   1_556  S
O93          C96   1.281       .  A
O93        Co110   2.041   1_556  S
O94          C95   1.288   1_565  A
O94        Co109   2.099   1_556  S
O99         C112   1.276       .  A
O99        Co107   2.053       .  S
O100        C113   1.284   1_655  A
O100       Co108   1.975       .  S
O101        C114   1.313       .  A
O101       Co109   2.167   1_545  S
O102        C115   1.272       .  A
O102       Co110   2.069       .  S
O103        C115   1.285       .  A
O103       Co108   2.104       .  S
O104        C114   1.273   1_655  A
O104       Co107   2.021       .  S
O105        C112   1.281       .  A
O105       Co110   2.062   1_545  S
O106        C113   1.323       .  A
O106       Co109   2.197       .  S
Co107       O111   2.207   1_545  S
Co108       O111   2.172       .  S
Co109       O111   2.146   1_455  S
Co110       O111   2.188       .  S
C112        C117   1.603       .  S
C116        C220   1.580       .  S
C116        C229   1.615       .  S
C116        C249   1.569       .  S
C117        C169   1.576       .  S
C117        C200   1.608       .  S
C117        C260   1.607       .  S
C118        C160   1.623       .  S
C118        C180   1.572       .  S
C118        C209   1.600       .  S
C119        C146   1.647       .  S
C119        C149   1.624       .  S
C119        C189   1.622       .  S
C119        C240   1.588       .  S
O120        C128   1.282       .  A
O120       Co140   1.969       .  S
O121        C129   1.275       .  A
O121       Co141   2.055       .  S
O122        C130   1.308       .  A
O122       Co142   2.138       .  S
O123        C131   1.261   1_655  A
O123       Co143   2.051       .  S
O124        C130   1.272       .  A
O124       Co141   2.015       .  S
O125        C131   1.287       .  A
O125       Co140   2.117       .  S
O126        C129   1.273       .  A
O126       Co143   2.038       .  S
O127        C128   1.316   1_655  A
O127       Co142   2.159       .  S
O132        C145   1.309       .  A
O132       Co140   2.159       .  S
O133        C146   1.272       .  A
O133       Co141   2.078       .  S
O134        C147   1.286   1_655  A
O134       Co142   1.979       .  S
O135        C148   1.275       .  A
O135       Co143   2.052       .  S
O136        C148   1.272       .  A
O136       Co141   2.060       .  S
O137        C147   1.326       .  A
O137       Co140   2.209       .  S
O138        C145   1.278   1_655  A
O138       Co143   2.034       .  S
O139        C146   1.284       .  A
O139       Co142   2.098       .  S
Co140       O144   2.147   1_455  S
Co141       O144   2.181       .  S
Co142       O144   2.134       .  S
Co143       O144   2.185       .  S
C149        C150   1.457       .  A
C149        C154   1.412       .  A
C150        C151   1.387       .  A
C150       Br166   1.927       .  S
C151        C152   1.378       .  A
C151        H155   1.085       .  S
C152        C153   1.429       .  A
C152        C156   1.512       .  S
C153        C154   1.425       .  A
C153       Br165   1.916       .  S
C154        H157   1.082       .  S
C156        C158   1.424       .  A
C156        C162   1.388       .  A
C158        C159   1.424       .  A
C158        H163   1.082       .  S
C159        C160   1.433       .  A
C159       Br167   1.930       .  S
C160        C161   1.430       .  A
C161        C162   1.389       .  A
C161        H164   1.052       .  S
C162       Br168   1.911       .  S
C169        C170   1.429       .  A
C169        C174   1.388       .  A
C170        C171   1.402       .  A
C170       Br186   1.918       .  S
C171        C172   1.401       .  A
C171        H175   1.081       .  S
C172        C173   1.429       .  A
C172        C176   1.493       .  S
C173        C174   1.399       .  A
C173       Br185   1.917       .  S
C174        H177   1.081       .  S
C176        C178   1.418       .  A
C176        C182   1.394       .  A
C178        C179   1.425       .  A
C178        H183   1.080       .  S
C179        C180   1.418       .  A
C179       Br187   1.940       .  S
C180        C181   1.411       .  A
C181        C182   1.371       .  A
C181        H184   1.069       .  S
C182       Br188   1.880       .  S
C189        C190   1.437       .  A
C189        C194   1.415       .  A
C190        C191   1.420       .  A
C190       Br206   1.901       .  S
C191        C192   1.404       .  A
C191        H195   1.078       .  S
C192        C193   1.413       .  A
C192        C196   1.523       .  S
C193        C194   1.410       .  A
C193       Br205   1.908       .  S
C194        H197   1.070       .  S
C196        C198   1.379       .  A
C196        C202   1.418       .  A
C198        C199   1.392       .  A
C198        H203   1.085       .  S
C199        C200   1.443       .  A
C199       Br207   1.875       .  S
C200        C201   1.416       .  A
C201        C202   1.434       .  A
C201        H204   1.082       .  S
C202       Br208   1.885       .  S
C209        C210   1.420       .  A
C209        C214   1.430       .  A
C210        C211   1.415       .  A
C210       Br226   1.894       .  S
C211        C212   1.406       .  A
C211        H215   1.079       .  S
C212        C213   1.396       .  A
C212        C216   1.491       .  S
C213        C214   1.386       .  A
C213       Br225   1.913       .  S
C214        H217   1.078       .  S
C216        C218   1.418       .  A
C216        C222   1.390       .  A
C218        C219   1.430       .  A
C218        H223   1.080       .  S
C219        C220   1.403       .  A
C219       Br227   1.942       .  S
C220        C221   1.424       .  A
C221        C222   1.378       .  A
C221        H224   1.054       .  S
C222       Br228   1.921       .  S
C229        C230   1.442       .  A
C229        C234   1.431       .  A
C230        C231   1.387       .  A
C230       Br246   1.931       .  S
C231        C232   1.383       .  A
C231        H235   1.076       .  S
C232        C233   1.397       .  A
C232        C236   1.492       .  S
C233        C234   1.430       .  A
C233       Br245   1.924       .  S
C234        H237   1.076       .  S
C236        C238   1.411       .  A
C236        C242   1.390       .  A
C238        C239   1.425       .  A
C238        H243   1.074       .  S
C239        C240   1.417       .  A
C239       Br247   1.890       .  S
C240        C241   1.425       .  A
C241        C242   1.369       .  A
C241        H244   1.081       .  S
C242       Br248   1.900       .  S
C249        C250   1.414       .  A
C249        C254   1.418       .  A
C250        C251   1.382       .  A
C250       Br266   1.922       .  S
C251        C252   1.393       .  A
C251        H255   1.074       .  S
C252        C253   1.426       .  A
C252        C256   1.503       .  S
C253        C254   1.418       .  A
C253       Br265   1.910   1_545  S
C254        H257   1.082   1_545  S
C256        C258   1.412       .  A
C256        C262   1.402       .  A
C258        C259   1.400       .  A
C258        H263   1.077       .  S
C259        C260   1.417       .  A
C259       Br267   1.916       .  S
C260        C261   1.433       .  A
C261        C262   1.413       .  A
C261        H264   1.066       .  S
C262       Br268   1.930       .  S
C269        C270   1.449       .  A
C269        C274   1.398       .  A
C270        C271   1.384       .  A
C270       Br286   1.924       .  S
C271        C272   1.380       .  A
C271        H275   1.086       .  S
C272        C273   1.413       .  A
C272        C276   1.478       .  S
C273        C274   1.409       .  A
C273       Br285   1.924       .  S
C274        H277   1.074       .  S
C276        C278   1.414       .  A
C276        C282   1.378       .  A
C278        C279   1.413       .  A
C278        H283   1.080       .  S
C279        C280   1.422       .  A
C279       Br287   1.926       .  S
C280        C281   1.435       .  A
C281        C282   1.379       .  A
C281        H284   1.056       .  S
C282       Br288   1.914       .  S
C289        C290   1.441       .  A
C289        C294   1.411       .  A
C290        C291   1.395       .  A
C290       Br306   1.919       .  S
C291        C292   1.392       .  A
C291        H295   1.085       .  S
C292        C293   1.431       .  A
C292        C296   1.516       .  S
C293        C294   1.421       .  A
C293       Br305   1.910       .  S
C294        H297   1.080       .  S
C296        C298   1.419       .  A
C296        C302   1.389       .  A
C298        C299   1.442       .  A
C298        H303   1.081       .  S
C299        C300   1.431       .  A
C299       Br307   1.918       .  S
C300        C301   1.428       .  A
C301        C302   1.388       .  A
C301        H304   1.075       .  S
C302       Br308   1.907       .  S
C309        C310   1.412       .  A
C309        C314   1.418       .  A
C310        C311   1.412       .  A
C310       Br326   1.887       .  S
C311        C312   1.409       .  A
C311        H315   1.080       .  S
C312        C313   1.414       .  A
C312        C316   1.507       .  S
C313        C314   1.396       .  A
C313       Br325   1.919       .  S
C314        H317   1.061       .  S
C316        C318   1.399       .  A
C316        C322   1.409       .  A
C318        C319   1.401       .  A
C318        H323   1.081       .  S
C319        C320   1.419       .  A
C319       Br327   1.867       .  S
C320        C321   1.436       .  A
C321        C322   1.406       .  A
C321        H324   1.058       .  S
C322       Br328   1.925       .  S
C329        C330   1.425       .  A
C329        C334   1.436       .  A
C330        C331   1.409       .  A
C330       Br346   1.921       .  S
C331        C332   1.401       .  A
C331        H335   1.062       .  S
C332        C333   1.395       .  A
C332        C336   1.502       .  S
C333        C334   1.397       .  A
C333       Br345   1.915       .  S
C334        H337   1.073       .  S
C336        C338   1.398       .  A
C336        C342   1.415       .  A
C338        C339   1.401       .  A
C338        H343   1.081       .  S
C339        C340   1.425       .  A
C339       Br347   1.938       .  S
C340        C341   1.422       .  A
C341        C342   1.420       .  A
C341        H344   1.080       .  S
C342       Br348   1.913       .  S
C349        C350   1.437       .  A
C349        C354   1.428       .  A
C350        C351   1.407       .  A
C350       Br366   1.908       .  S
C351        C352   1.408       .  A
C351        H355   1.084       .  S
C352        C353   1.376       .  A
C352        C356   1.484       .  S
C353        C354   1.377       .  A
C353       Br365   1.906       .  S
C354        H357   1.057       .  S
C356        C358   1.392       .  A
C356        C362   1.424       .  A
C358        C359   1.366       .  A
C358        H363   1.085       .  S
C359        C360   1.412       .  A
C359       Br367   1.910       .  S
C360        C361   1.406       .  A
C361        C362   1.411       .  A
C361        H364   1.083       .  S
C362       Br368   1.904       .  S
C369        C370   1.441       .  A
C369        C374   1.416   1_556  A
C370        C371   1.398       .  A
C370       Br386   1.912       .  S
C371        C372   1.399       .  A
C371        H375   1.085       .  S
C372        C373   1.437   1_556  A
C372        C376   1.537   1_556  S
C373        C374   1.419       .  A
C373       Br385   1.914       .  S
C374        H377   1.081       .  S
C376        C378   1.425       .  A
C376        C382   1.418   1_554  A
C378        C379   1.431       .  A
C378        H383   1.079       .  S
C379        C380   1.403   1_554  A
C379       Br387   1.948       .  S
C380        C381   1.416       .  A
C381        C382   1.404       .  A
C381        H384   1.065       .  S
C382       Br388   1.906       .  S
C389        C390   1.449       .  A
C389        C394   1.396       .  A
C390        C391   1.396       .  A
C390       Br406   1.911       .  S
C391        C392   1.390       .  A
C391        H395   1.084       .  S
C392        C393   1.389       .  A
C392        C396   1.503       .  S
C393        C394   1.422       .  A
C393       Br405   1.921       .  S
C394        H397   1.064       .  S
C396        C398   1.405       .  A
C396        C402   1.389       .  A
C398        C399   1.426       .  A
C398        H403   1.081       .  S
C399        C400   1.425       .  A
C399       Br407   1.886       .  S
C400        C401   1.419       .  A
C401        C402   1.393       .  A
C401        H404   1.053       .  S
C402       Br408   1.917       .  S
C409        C410   1.444       .  A
C409        C414   1.411       .  A
C410        C411   1.378       .  A
C410       Br426   1.926       .  S
C411        C412   1.387       .  A
C411        H415   1.085       .  S
C412        C413   1.415       .  A
C412        C416   1.491       .  S
C413        C414   1.413       .  A
C413       Br425   1.891       .  S
C414        H417   1.082       .  S
C416        C418   1.411       .  A
C416        C422   1.417       .  A
C418        C419   1.393       .  A
C418        H423   1.076       .  S
C419        C420   1.410       .  A
C419       Br427   1.906       .  S
C420        C421   1.409       .  A
C421        C422   1.394       .  A
C421        H424   1.064       .  S
C422       Br428   1.911       .  S
C429        C430   1.421       .  A
C429        C434   1.434       .  A
C430        C431   1.402       .  A
C430       Br446   1.930       .  S
C431        C432   1.412       .  A
C431        H435   1.075       .  S
C432        C433   1.400       .  A
C432        C436   1.510       .  S
C433        C434   1.398       .  A
C433       Br445   1.928       .  S
C434        H437   1.049       .  S
C436        C438   1.430       .  A
C436        C442   1.405       .  A
C438        C439   1.430       .  A
C438        H443   1.079       .  S
C439        C440   1.426       .  A
C439       Br447   1.923       .  S
C440        C441   1.417       .  A
C441        C442   1.379       .  A
C441        H444   1.051       .  S
C442       Br448   1.936       .  S
C449        C450   1.392       .  A
C449        C454   1.410       .  A
C450        C451   1.404       .  A
C450       Br466   1.923       .  S
C451        C452   1.422       .  A
C451        H455   1.062       .  S
C452        C453   1.434       .  A
C452        C456   1.537       .  S
C453        C454   1.408       .  A
C453       Br465   1.936       .  S
C454        H457   1.082       .  S
C456        C458   1.423       .  A
C456        C462   1.438       .  A
C458        C459   1.405       .  A
C458        H463   1.072       .  S
C459        C460   1.408       .  A
C459       Br467   1.927       .  S
C460        C461   1.384       .  A
C461        C462   1.401       .  A
C461        H464   1.073       .  S
C462       Br468   1.915       .  S
C469        C470   1.440       .  A
C469        C474   1.417       .  A
C470        C471   1.388       .  A
C470       Br486   1.917       .  S
C471        C472   1.388       .  A
C471        H475   1.086       .  S
C472        C473   1.430       .  A
C472        C476   1.502       .  S
C473        C474   1.423       .  A
C473       Br485   1.913       .  S
C474        H477   1.080       .  S
C476        C478   1.421       .  A
C476        C482   1.394       .  A
C478        C479   1.431       .  A
C478        H483   1.074       .  S
C479        C480   1.413       .  A
C479       Br487   1.919       .  S
C480        C481   1.411       .  A
C481        C482   1.365       .  A
C481        H484   1.082       .  S
C482       Br488   1.874       .  S
C489        C490   1.406       .  A
C489        C494   1.441       .  A
C490        C491   1.419       .  A
C490       Br506   1.899       .  S
C491        C492   1.416       .  A
C491        H495   1.082       .  S
C492        C493   1.384       .  A
C492        C496   1.493       .  S
C493        C494   1.395       .  A
C493       Br505   1.912       .  S
C494        H497   1.061       .  S
C496        C498   1.380       .  A
C496        C502   1.425       .  A
C498        C499   1.386       .  A
C498        H503   1.086       .  S
C499        C500   1.455       .  A
C499       Br507   1.925       .  S
C500        C501   1.391       .  A
C501        C502   1.404       .  A
C501        H504   1.072       .  S
C502       Br508   1.911       .  S
C509        C510   1.449       .  A
C509        C514   1.415   1_455  A
C510        C511   1.413       .  A
C510       Br526   1.932   1_455  S
C511        C512   1.396       .  A
C511        H515   1.083       .  S
C512        C513   1.418   1_455  A
C512        C516   1.522       .  S
C513        C514   1.418       .  A
C513       Br525   1.920       .  S
C514        H517   1.070       .  S
C516        C518   1.422   1_455  A
C516        C522   1.389       .  A
C518        C519   1.437   1_655  A
C518        H523   1.081       .  S
C519        C520   1.428       .  A
C519       Br527   1.915   1_455  S
C520        C521   1.441       .  A
C521        C522   1.392       .  A
C521        H524   1.073       .  S
C522       Br528   1.914       .  S
C529        C530   1.427       .  A
C529        C534   1.400       .  A
C530        C531   1.416       .  A
C530       Br546   1.895       .  S
C531        C532   1.405       .  A
C531        H535   1.083       .  S
C532        C533   1.419       .  A
C532        C536   1.519       .  S
C533        C534   1.421       .  A
C533       Br545   1.916       .  S
C534        H537   1.071       .  S
C536        C538   1.419       .  A
C536        C542   1.394       .  A
C538        C539   1.429       .  A
C538        H543   1.073       .  S
C539        C540   1.417       .  A
C539       Br547   1.906       .  S
C540        C541   1.433       .  A
C541        C542   1.391       .  A
C541        H544   1.077       .  S
C542       Br548   1.916       .  S
C549        C550   1.432       .  A
C549        C554   1.430       .  A
C550        C551   1.405       .  A
C550       Br566   1.905       .  S
C551        C552   1.407       .  A
C551        H555   1.084       .  S
C552        C553   1.406       .  A
C552        C556   1.512       .  S
C553        C554   1.413       .  A
C553       Br565   1.916       .  S
C554        H557   1.063       .  S
C556        C558   1.386       .  A
C556        C562   1.421       .  A
C558        C559   1.382       .  A
C558        H563   1.085       .  S
C559        C560   1.433       .  A
C559       Br567   1.906       .  S
C560        C561   1.409       .  A
C561        C562   1.435       .  A
C561        H564   1.071       .  S
C562       Br568   1.913       .  S
C569        C570   1.442       .  A
C569        C574   1.419       .  A
C570        C571   1.421       .  A
C570       Br586   1.923       .  S
C571        C572   1.403       .  A
C571        H575   1.071       .  S
C572        C573   1.414       .  A
C572        C576   1.516       .  S
C573        C574   1.387       .  A
C573       Br585   1.931       .  S
C574        H577   1.077       .  S
C576        C578   1.386       .  A
C576        C582   1.426       .  A
C578        C579   1.397       .  A
C578        H583   1.085       .  S
C579        C580   1.459       .  A
C579       Br587   1.932       .  S
C580        C581   1.427       .  A
C581        C582   1.431       .  A
C581        H584   1.083       .  S
C582       Br588   1.914       .  S
C589        C590   1.427       .  A
C589        C594   1.426       .  A
C590        C591   1.365       .  A
C590       Br606   1.903       .  S
C591        C592   1.389       .  A
C591        H595   1.084       .  S
C592        C593   1.428       .  A
C592        C596   1.496       .  S
C593        C594   1.414       .  A
C593       Br605   1.919   1_556  S
C594        H597   1.077       .  S
C596        C598   1.411   1_556  A
C596        C602   1.401       .  A
C598        C599   1.402   1_554  A
C598        H603   1.083       .  S
C599        C600   1.423       .  A
C599       Br607   1.893   1_556  S
C600        C601   1.417       .  A
C601        C602   1.396       .  A
C601        H604   1.069       .  S
C602       Br608   1.909       .  S
C609        C610   1.411       .  A
C609        C614   1.429       .  A
C610        C611   1.412       .  A
C610       Br626   1.896       .  S
C611        C612   1.405       .  A
C611        H615   1.076       .  S
C612        C613   1.380       .  A
C612        C616   1.470       .  S
C613        C614   1.373       .  A
C613       Br625   1.918       .  S
C614        H617   1.068       .  S
C616        C618   1.390       .  A
C616        C622   1.412       .  A
C618        C619   1.397       .  A
C618        H623   1.084       .  S
C619        C620   1.437       .  A
C619       Br627   1.920       .  S
C620        C621   1.377       .  A
C621        C622   1.403       .  A
C621        H624   1.062       .  S
C622       Br628   1.919       .  S
C629        C630   1.433       .  A
C629        C634   1.408       .  A
C630        C631   1.390       .  A
C630       Br646   1.902       .  S
C631        C632   1.389       .  A
C631        H635   1.083       .  S
C632        C633   1.405       .  A
C632        C636   1.483       .  S
C633        C634   1.418       .  A
C633       Br645   1.914   1_545  S
C634        H637   1.075   1_545  S
C636        C638   1.401       .  A
C636        C642   1.380       .  A
C638        C639   1.416       .  A
C638        H643   1.070   1_545  S
C639        C640   1.439       .  A
C639       Br647   1.930   1_545  S
C640        C641   1.433       .  A
C641        C642   1.373       .  A
C641        H644   1.063       .  S
C642       Br648   1.922       .  S
C649        C650   1.412       .  A
C649        C654   1.403       .  A
C650        C651   1.404       .  A
C650       Br666   1.928       .  S
C651        C652   1.415       .  A
C651        H655   1.080       .  S
C652        C653   1.420       .  A
C652        C656   1.509       .  S
C653        C654   1.405       .  A
C653       Br665   1.921       .  S
C654        H657   1.078       .  S
C656        C658   1.396       .  A
C656        C662   1.396       .  A
C658        C659   1.413       .  A
C658        H663   1.082       .  S
C659        C660   1.445       .  A
C659       Br667   1.896       .  S
C660        C661   1.425       .  A
C661        C662   1.385       .  A
C661        H664   1.065       .  S
C662       Br668   1.906       .  S
C669        C670   1.381       .  A
C669        C674   1.405       .  A
C670        C671   1.422       .  A
C670       Br686   1.897       .  S
C671        C672   1.428       .  A
C671        H675   1.074       .  S
C672        C673   1.446       .  A
C672        C676   1.551       .  S
C673        C674   1.405       .  A
C673       Br685   1.933       .  S
C674        H677   1.083       .  S
C676        C678   1.399       .  A
C676        C682   1.438       .  A
C678        C679   1.393       .  A
C678        H683   1.071       .  S
C679        C680   1.423       .  A
C679       Br687   1.899       .  S
C680        C681   1.442       .  A
C681        C682   1.444       .  A
C681        H684   1.083       .  S
C682       Br688   1.919       .  S
C689        C690   1.426       .  A
C689        C694   1.399       .  A
C690        C691   1.374       .  A
C690       Br706   1.900       .  S
C691        C692   1.396       .  A
C691        H695   1.083       .  S
C692        C693   1.432       .  A
C692        C696   1.518       .  S
C693        C694   1.420       .  A
C693       Br705   1.910       .  S
C694        H697   1.072       .  S
C696        C698   1.426       .  A
C696        C702   1.422       .  A
C698        C699   1.391       .  A
C698        H703   1.076       .  S
C699        C700   1.413       .  A
C699       Br707   1.927       .  S
C700        C701   1.400       .  A
C701        C702   1.399       .  A
C701        H704   1.071       .  S
C702       Br708   1.907       .  S
C709        C710   1.424       .  A
C709        C714   1.430       .  A
C710        C711   1.438       .  A
C710       Br726   1.918   1_556  S
C711        C712   1.424       .  A
C711        H715   1.081   1_556  S
C712        C713   1.391       .  A
C712        C716   1.508       .  S
C713        C714   1.389       .  A
C713       Br725   1.924       .  S
C714        H717   1.055       .  S
C716        C718   1.380       .  A
C716        C722   1.419       .  A
C718        C719   1.393       .  A
C718        H723   1.081       .  S
C719        C720   1.445       .  A
C719       Br727   1.928       .  S
C720        C721   1.406       .  A
C721        C722   1.419       .  A
C721        H724   1.079       .  S
C722       Br728   1.917   1_556  S
C729        C730   1.420       .  A
C729        C734   1.402       .  A
C730        C731   1.399       .  A
C730       Br746   1.920       .  S
C731        C732   1.409       .  A
C731        H735   1.083       .  S
C732        C733   1.436       .  A
C732        C736   1.505       .  S
C733        C734   1.396       .  A
C733       Br745   1.921       .  S
C734        H737   1.084       .  S
C736        C738   1.412       .  A
C736        C742   1.388       .  A
C738        C739   1.422       .  A
C738        H743   1.074       .  S
C739        C740   1.427       .  A
C739       Br747   1.915       .  S
C740        C741   1.415       .  A
C741        C742   1.376       .  A
C741        H744   1.083       .  S
C742       Br748   1.858       .  S
C749        C750   1.419       .  A
C749        C754   1.425       .  A
C750        C751   1.414       .  A
C750       Br766   1.907       .  S
C751        C752   1.407       .  A
C751        H755   1.068       .  S
C752        C753   1.390       .  A
C752        C756   1.500       .  S
C753        C754   1.385       .  A
C753       Br765   1.897       .  S
C754        H757   1.082       .  S
C756        C758   1.388       .  A
C756        C762   1.422       .  A
C758        C759   1.388       .  A
C758        H763   1.085       .  S
C759        C760   1.436       .  A
C759       Br767   1.909       .  S
C760        C761   1.412       .  A
C761        C762   1.426       .  A
C761        H764   1.070       .  S
C762       Br768   1.919       .  S
C769        C770   1.417   1_455  A
C769        C774   1.425       .  A
C770        C771   1.426       .  A
C770       Br786   1.905       .  S
C771        C772   1.422       .  A
C771        H775   1.072       .  S
C772        C773   1.430   1_655  A
C772        C776   1.562       .  S
C773        C774   1.420       .  A
C773       Br785   1.922       .  S
C774        H777   1.082       .  S
C776        C778   1.430       .  A
C776        C782   1.439       .  A
C778        C779   1.430       .  A
C778        H783   1.077       .  S
C779        C780   1.428   1_655  A
C779       Br787   1.915       .  S
C780        C781   1.385   1_455  A
C781        C782   1.418       .  A
C781        H784   1.060       .  S
C782       Br788   1.927       .  S
C789        C790   1.448       .  A
C789        C794   1.397       .  A
C790        C791   1.397       .  A
C790       Br806   1.905       .  S
C791        C792   1.391       .  A
C791        H795   1.086       .  S
C792        C793   1.385       .  A
C792        C796   1.467       .  S
C793        C794   1.391       .  A
C793       Br805   1.920       .  S
C794        H797   1.048       .  S
C796        C798   1.395       .  A
C796        C802   1.382       .  A
C798        C799   1.410       .  A
C798        H803   1.078       .  S
C799        C800   1.445       .  A
C799       Br807   1.918       .  S
C800        C801   1.423       .  A
C801        C802   1.365       .  A
C801        H804   1.070       .  S
C802       Br808   1.909       .  S
C809        C810   1.429       .  A
C809        C814   1.403       .  A
C810        C811   1.416       .  A
C810       Br826   1.922       .  S
C811        C812   1.428       .  A
C811        H815   1.075       .  S
C812        C813   1.425       .  A
C812        C816   1.539       .  S
C813        C814   1.392       .  A
C813       Br825   1.914       .  S
C814        H817   1.062       .  S
C816        C818   1.419       .  A
C816        C822   1.433       .  A
C818        C819   1.402       .  A
C818        H823   1.077       .  S
C819        C820   1.407       .  A
C819       Br827   1.920       .  S
C820        C821   1.411       .  A
C821        C822   1.412       .  A
C821        H824   1.066       .  S
C822       Br828   1.918       .  S
C829        C830   1.453       .  A
C829        C834   1.417       .  A
C830        C831   1.417       .  A
C830       Br846   1.920       .  S
C831        C832   1.395       .  A
C831        H835   1.083       .  S
C832        C833   1.403       .  A
C832        C836   1.492       .  S
C833        C834   1.383       .  A
C833       Br845   1.947       .  S
C834        H837   1.042       .  S
C836        C838   1.416       .  A
C836        C842   1.388       .  A
C838        C839   1.431       .  A
C838        H843   1.080       .  S
C839        C840   1.441       .  A
C839       Br847   1.925       .  S
C840        C841   1.407       .  A
C841        C842   1.360       .  A
C841        H844   1.069       .  S
C842       Br848   1.908       .  S
C849        C850   1.423       .  A
C849        C854   1.431       .  A
C850        C851   1.403       .  A
C850       Br866   1.906       .  S
C851        C852   1.405       .  A
C851        H855   1.080       .  S
C852        C853   1.388       .  A
C852        C856   1.469       .  S
C853        C854   1.375       .  A
C853       Br865   1.916       .  S
C854        H857   1.075       .  S
C856        C858   1.383       .  A
C856        C862   1.404       .  A
C858        C859   1.388       .  A
C858        H863   1.088       .  S
C859        C860   1.456       .  A
C859       Br867   1.910       .  S
C860        C861   1.414       .  A
C861        C862   1.399       .  A
C861        H864   1.066       .  S
C862       Br868   1.920       .  S
C869        C870   1.407       .  A
C869        C874   1.437       .  A
C870        C871   1.414       .  A
C870       Br886   1.902       .  S
C871        C872   1.402       .  A
C871        H875   1.059       .  S
C872        C873   1.389       .  A
C872        C876   1.478       .  S
C873        C874   1.372       .  A
C873       Br885   1.921       .  S
C874        H877   1.082       .  S
C876        C878   1.388       .  A
C876        C882   1.389       .  A
C878        C879   1.407       .  A
C878        H883   1.084       .  S
C879        C880   1.456       .  A
C879       Br887   1.916       .  S
C880        C881   1.419       .  A
C881        C882   1.394       .  A
C881        H884   1.052       .  S
C882       Br888   1.923       .  S
C889        C890   1.439       .  A
C889        C894   1.433       .  A
C890        C891   1.417       .  A
C890       Br906   1.933       .  S
C891        C892   1.410       .  A
C891        H895   1.081       .  S
C892        C893   1.394       .  A
C892        C896   1.497       .  S
C893        C894   1.397       .  A
C893       Br905   1.923       .  S
C894        H897   1.060       .  S
C896        C898   1.382       .  A
C896        C902   1.416       .  A
C898        C899   1.391       .  A
C898        H903   1.081       .  S
C899        C900   1.448       .  A
C899       Br907   1.918       .  S
C900        C901   1.408       .  A
C901        C902   1.421       .  A
C901        H904   1.080   1_556  S
C902       Br908   1.917   1_556  S
C909        C910   1.443       .  A
C909        C914   1.414       .  A
C910        C911   1.405       .  A
C910       Br926   1.930       .  S
C911        C912   1.401       .  A
C911        H915   1.068       .  S
C912        C913   1.442   1_455  A
C912        C916   1.571       .  S
C913        C914   1.433   1_655  A
C913       Br925   1.912       .  S
C914        H917   1.081   1_455  S
C916        C918   1.420       .  A
C916        C922   1.445   1_455  A
C918        C919   1.423   1_455  A
C918        H923   1.068       .  S
C919        C920   1.426   1_655  A
C919       Br927   1.910       .  S
C920        C921   1.416   1_455  A
C921        C922   1.423       .  A
C921        H924   1.068       .  S
C922       Br928   1.930       .  S
C929        C930   1.449       .  A
C929        C934   1.404       .  A
C930        C931   1.381       .  A
C930       Br946   1.930       .  S
C931        C932   1.386       .  A
C931        H935   1.084       .  S
C932        C933   1.441       .  A
C932        C936   1.503       .  S
C933        C934   1.402       .  A
C933       Br945   1.933       .  S
C934        H937   1.084       .  S
C936        C938   1.374       .  A
C936        C942   1.418       .  A
C938        C939   1.389       .  A
C938        H943   1.073       .  S
C939        C940   1.465       .  A
C939       Br947   1.932       .  S
C940        C941   1.399       .  A
C941        C942   1.424       .  A
C941        H944   1.077       .  S
C942       Br948   1.931       .  S
C949        C950   1.420       .  A
C949        C954   1.428       .  A
C950        C951   1.415       .  A
C950       Br966   1.917       .  S
C951        C952   1.409       .  A
C951        H955   1.061       .  S
C952        C953   1.394       .  A
C952        C956   1.497       .  S
C953        C954   1.387       .  A
C953       Br965   1.917       .  S
C954        H957   1.079       .  S
C956        C958   1.386       .  A
C956        C962   1.417       .  A
C958        C959   1.392       .  A
C958        H963   1.087       .  S
C959        C960   1.460       .  A
C959       Br967   1.929       .  S
C960        C961   1.416       .  A
C961        C962   1.428       .  A
C961        H964   1.081       .  S
C962       Br968   1.918       .  S
C969        C970   1.417       .  A
C969        C974   1.408       .  A
C970        C971   1.394       .  A
C970       Br986   1.922       .  S
C971        C972   1.403       .  A
C971        H975   1.079       .  S
C972        C973   1.427   1_545  A
C972        C976   1.517       .  S
C973        C974   1.419   1_565  A
C973       Br985   1.918       .  S
C974        H977   1.081   1_545  S
C976        C978   1.417   1_545  A
C976        C982   1.406       .  A
C978        C979   1.414   1_565  A
C978        H983   1.076       .  S
C979        C980   1.423       .  A
C979       Br987   1.936   1_545  S
C980        C981   1.420       .  A
C981        C982   1.395       .  A
C981        H984   1.053       .  S
C982       Br988   1.914       .  S
C989        C990   1.431       .  A
C989        C994   1.404   1_455  A
C990        C991   1.402       .  A
C990      Br1006   1.916   1_455  S
C991        C992   1.399       .  A
C991        H995   1.079       .  S
C992        C993   1.429   1_455  A
C992        C996   1.531       .  S
C993        C994   1.412       .  A
C993      Br1005   1.925       .  S
C994        H997   1.067       .  S
C996        C998   1.391       .  A
C996       C1002   1.428   1_455  A
C998        C999   1.404       .  A
C998       H1003   1.068       .  S
C999       C1000   1.437       .  A
C999      Br1007   1.924       .  S
C1000      C1001   1.420   1_455  A
C1001      C1002   1.417       .  A
C1001      H1004   1.082       .  S
C1002     Br1008   1.915       .  S
C1009      C1010   1.429       .  A
C1009      C1014   1.401       .  A
C1010      C1011   1.437       .  A
C1010     Br1026   1.895       .  S
C1011      C1012   1.416       .  A
C1011      H1015   1.082       .  S
C1012      C1013   1.419       .  A
C1012      C1016   1.537       .  S
C1013      C1014   1.420       .  A
C1013     Br1025   1.927       .  S
C1014      H1017   1.069       .  S
C1016      C1018   1.420       .  A
C1016      C1022   1.396       .  A
C1018      C1019   1.439       .  A
C1018      H1023   1.081       .  S
C1019      C1020   1.435       .  A
C1019     Br1027   1.915       .  S
C1020      C1021   1.433       .  A
C1021      C1022   1.406       .  A
C1021      H1024   1.074       .  S
C1022     Br1028   1.916       .  S
C1029      C1030   1.456       .  A
C1029      C1034   1.416       .  A
C1030      C1031   1.428       .  A
C1030     Br1046   1.927       .  S
C1031      C1032   1.405       .  A
C1031      H1035   1.078   1_545  S
C1032      C1033   1.400       .  A
C1032      C1036   1.528       .  S
C1033      C1034   1.396       .  A
C1033     Br1045   1.899       .  S
C1034      H1037   1.073       .  S
C1036      C1038   1.423       .  A
C1036      C1042   1.421       .  A
C1038      C1039   1.428       .  A
C1038      H1043   1.080   1_545  S
C1039      C1040   1.397       .  A
C1039     Br1047   1.938   1_545  S
C1040      C1041   1.416       .  A
C1041      C1042   1.410       .  A
C1041      H1044   1.077       .  S
C1042     Br1048   1.918       .  S
C1049      C1050   1.441       .  A
C1049      C1054   1.391       .  A
C1050      C1051   1.404       .  A
C1050     Br1066   1.939       .  S
C1051      C1052   1.394       .  A
C1051      H1055   1.082       .  S
C1052      C1053   1.418       .  A
C1052      C1056   1.503       .  S
C1053      C1054   1.401       .  A
C1053     Br1065   1.910       .  S
C1054      H1057   1.062       .  S
C1056      C1058   1.386       .  A
C1056      C1062   1.416       .  A
C1058      C1059   1.397       .  A
C1058      H1063   1.085       .  S
C1059      C1060   1.454       .  A
C1059     Br1067   1.928       .  S
C1060      C1061   1.427       .  A
C1061      C1062   1.414       .  A
C1061      H1064   1.078       .  S
C1062     Br1068   1.921       .  S
C1069      C1070   1.411       .  A
C1069      C1074   1.420       .  A
C1070      C1071   1.406       .  A
C1070     Br1086   1.896       .  S
C1071      C1072   1.399       .  A
C1071      H1075   1.082       .  S
C1072      C1073   1.412       .  A
C1072      C1076   1.496       .  S
C1073      C1074   1.411       .  A
C1073     Br1085   1.917       .  S
C1074      H1077   1.081       .  S
C1076      C1078   1.407       .  A
C1076      C1082   1.388       .  A
C1078      C1079   1.421       .  A
C1078      H1083   1.074       .  S
C1079      C1080   1.408       .  A
C1079     Br1087   1.878       .  S
C1080      C1081   1.429       .  A
C1081      C1082   1.381       .  A
C1081      H1084   1.072       .  S
C1082     Br1088   1.905       .  S
C1089      C1090   1.381       .  A
C1089      C1094   1.430       .  A
C1090      C1091   1.408       .  A
C1090     Br1106   1.914       .  S
C1091      C1092   1.422       .  A
C1091      H1095   1.071       .  S
C1092      C1093   1.401       .  A
C1092      C1096   1.497       .  S
C1093      C1094   1.398       .  A
C1093     Br1105   1.920       .  S
C1094      H1097   1.073       .  S
C1096      C1098   1.375       .  A
C1096      C1102   1.416       .  A
C1098      C1099   1.385       .  A
C1098      H1103   1.086       .  S
C1099      C1100   1.449       .  A
C1099     Br1107   1.902       .  S
C1100      C1101   1.422       .  A
C1101      C1102   1.433       .  A
C1101      H1104   1.081       .  S
C1102     Br1108   1.915       .  S
