geometry optimzed in LAMMPS
_audit_creation_date              2020-11-30 
_audit_creation_method            'lammps2cif' 
_symmetry_space_group_name_H-M    'P1' 
_symmetry_Int_Tables_number       1 
_symmetry_cell_setting            triclinic 
loop_ 
_symmetry_equiv_pos_as_xyz 
  x,y,z 
_cell_length_a                    34.40471296 
_cell_length_b                    34.57083015950807 
_cell_length_c                    34.19627320841985 
_cell_angle_alpha                 89.90129801710292 
_cell_angle_beta                  89.86917581406136 
_cell_angle_gamma                 90.40438512028872 
loop_ 
_atom_site_label 
_atom_site_type_symbol 
_atom_site_fract_x 
_atom_site_fract_y 
_atom_site_fract_z 
_atom_site_charge 
N1          N  0.01053294  0.45742721  0.04401985    -0.34800
N2          N  0.00953618  0.45791293  0.95810948    -0.55400
N3          N  0.01283374  0.54156893  0.95859072    -0.34800
N4          N  0.00997255  0.54127465  0.04456401    -0.55400
C5          C  0.00241817  0.41968879  0.03676943     0.28700
C6          C  0.00337738  0.46385738  0.08251476     0.28800
C7          C  0.00494912  0.53508488  0.92029215     0.28700
C8          C  0.00453767  0.57908945  0.96594841     0.28700
C9          C  0.01357798  0.41950530  0.96425965     0.37400
C10         C  0.01499646  0.46391595  0.91932825     0.37400
C11         C  0.01511595  0.53518256  0.08334411     0.37400
C12         C  0.01591033  0.57949959  0.03816730     0.37400
C13         C  0.99071758  0.40182313  0.07126342    -0.20100
C14         C  0.99106755  0.42965268  0.09994800    -0.20100
C15         C  0.99199760  0.56894868  0.90312141    -0.20100
C16         C  0.99179640  0.59668845  0.93184101    -0.20100
C17         C  0.02128500  0.40105446  0.92909390    -0.21200
C18         C  0.02244457  0.42918636  0.90075152    -0.21200
C19         C  0.02438902  0.56978338  0.10164974    -0.21200
C20         C  0.02473696  0.59785186  0.07308196    -0.21200
C21         C  0.00735958  0.40037241  0.00046200    -0.16500
C22         C  0.00911314  0.49930216  0.10277289    -0.16500
C23         C  0.01017485  0.59855615  0.00194495    -0.16500
C24         C  0.01028941  0.49981260  0.89999986    -0.16500
H25         H  0.98293218  0.37174399  0.07557866     0.16400
H26         H  0.98334016  0.42505033  0.13030566     0.16400
H27         H  0.98355475  0.57328656  0.87296957     0.16400
H28         H  0.98336445  0.62653729  0.92789333     0.16400
H29         H  0.02502255  0.37041160  0.92410117     0.14700
H30         H  0.02736848  0.42446180  0.86986221     0.14700
H31         H  0.02979866  0.57444268  0.13245429     0.14700
H32         H  0.03028748  0.62837483  0.07759157     0.14700
H33         H  0.02389842  0.47640841  0.02485006     0.27900
H34         H  0.02683396  0.52289391  0.97743822     0.27900
N35         N  0.99245585  0.54382550  0.54353926    -0.34800
N36         N  0.99623202  0.54230298  0.45730999    -0.55400
N37         N  0.99404270  0.45846487  0.45933235    -0.34800
N38         N  0.99527839  0.46014381  0.54553083    -0.55400
C39         C  0.99902506  0.58170170  0.53568015     0.28700
C40         C  0.99931986  0.53828091  0.58221549     0.28800
C41         C  0.00150224  0.46413980  0.42074331     0.28700
C42         C  0.00060967  0.42069289  0.46728432     0.28700
C43         C  0.99029453  0.58055839  0.46282372     0.37400
C44         C  0.99232892  0.53568853  0.41845983     0.37400
C45         C  0.99082395  0.46657496  0.58434608     0.37400
C46         C  0.99070174  0.42164583  0.54004681     0.37400
C47         C  0.00940524  0.60056810  0.56995443    -0.20100
C48         C  0.00979657  0.57320406  0.59916272    -0.20100
C49         C  0.01237047  0.42936282  0.40394691    -0.20100
C50         C  0.01163677  0.40199436  0.43317598    -0.20100
C51         C  0.98311080  0.59838436  0.42721590    -0.21200
C52         C  0.98428717  0.57000291  0.39920111    -0.21200
C53         C  0.98365629  0.43194468  0.60359894    -0.21200
C54         C  0.98363059  0.40352415  0.57560096    -0.21200
C55         C  0.99391408  0.60024586  0.49899745    -0.16500
C56         C  0.99527723  0.50290940  0.60302988    -0.16500
C57         C  0.99547002  0.40207862  0.50399199    -0.16500
C58         C  0.99743529  0.49942769  0.39983228    -0.16500
H59         H  0.01592829  0.63098885  0.57374138     0.16400
H60         H  0.01685194  0.57854105  0.62951360     0.16400
H61         H  0.01996876  0.42413071  0.37369548     0.16400
H62         H  0.01847288  0.37169182  0.42961465     0.16400
H63         H  0.97791788  0.62877036  0.42185327     0.14700
H64         H  0.97986498  0.57423632  0.36816814     0.14700
H65         H  0.97925887  0.42753110  0.63464121     0.14700
H66         H  0.97937159  0.37291305  0.58092114     0.14700
H67         H  0.98017117  0.52404174  0.52442145     0.27900
H68         H  0.98150329  0.47808923  0.47830373     0.27900
Zn69       Zn  0.03281388  0.03248049  0.03083198     1.49700
Zn70       Zn  0.02996733  0.96679124  0.96616829     1.49400
Zn71       Zn  0.96683429  0.96438724  0.03241875     1.49100
Zn72       Zn  0.96357995  0.03318083  0.97158129     1.49500
O73         O  0.99841642  0.99921576  0.00024109    -1.82400
O74         O  0.08906851  0.02522927  0.01626424    -0.73000
O75         O  0.02083683  0.90957871  0.97466378    -0.72800
O76         O  0.98225702  0.97091950  0.08775810    -0.72300
O77         O  0.08751187  0.97721391  0.97310017    -0.73000
O78         O  0.02688233  0.01788795  0.08679993    -0.72600
O79         O  0.97454822  0.90819722  0.01959206    -0.73200
O80         O  0.90770691  0.02491649  0.98670540    -0.72600
O81         O  0.01513677  0.97794745  0.91119824    -0.73300
O82         O  0.90961993  0.97549005  0.02813813    -0.72700
O83         O  0.96896875  0.02274686  0.91481199    -0.73200
O84         O  0.97510215  0.08956318  0.97997963    -0.73100
O85         O  0.02129296  0.08959060  0.02473736    -0.72900
C86         C  0.10625657  0.00165782  0.99367515     0.78900
C87         C  0.99751138  0.89069087  0.99655583     0.79400
C88         C  0.00619589  0.99311863  0.10512484     0.78400
C89         C  0.89067672  0.00072280  0.00907350     0.78700
C90         C  0.99060867  0.00028817  0.89516305     0.79900
C91         C  0.99813035  0.10783681  0.00246033     0.78900
Zn92       Zn  0.96620163  0.96957257  0.53180157     1.49700
Zn93       Zn  0.96980668  0.03461379  0.46623763     1.49400
Zn94       Zn  0.03503137  0.03430616  0.53110714     1.49100
Zn95       Zn  0.03354699  0.96580604  0.47058390     1.49500
O96         O  0.00097259  0.00123820  0.49992071    -1.82400
O97         O  0.91033168  0.98169820  0.52133624    -0.73000
O98         O  0.98059980  0.09166783  0.47563509    -0.72800
O99         O  0.02515429  0.02439262  0.58739123    -0.72300
O100        O  0.91208319  0.02543699  0.47383182    -0.73000
O101        O  0.97612528  0.98181731  0.58729237    -0.72600
O102        O  0.02582168  0.09122774  0.52161601    -0.73200
O103        O  0.09031031  0.97332280  0.48091122    -0.72600
O104        O  0.98238628  0.02248100  0.41079788    -0.73300
O105        O  0.09136105  0.02333728  0.52139157    -0.72700
O106        O  0.02627582  0.97552330  0.41458207    -0.73200
O107        O  0.02009265  0.90996233  0.47995971    -0.73100
O108        O  0.97289288  0.91173396  0.52384932    -0.72900
C109        C  0.89306091  0.00385184  0.49737760     0.78900
C110        C  0.00333921  0.10966268  0.49880213     0.79400
C111        C  0.00019199  0.00351554  0.60511644     0.78400
C112        C  0.10890398  0.99791932  0.50128780     0.78700
C113        C  0.00524089  0.99835343  0.39489144     0.79900
C114        C  0.99550077  0.89262146  0.50169507     0.78900
N115        N  0.53891546  0.99960986  0.04548366    -0.34800
N116        N  0.54099706  0.00578678  0.95963469    -0.55400
N117        N  0.45735031  0.00286279  0.95896657    -0.34800
N118        N  0.45544708  0.00080588  0.04486141    -0.55400
C119        C  0.57607464  0.01076426  0.03863592     0.28700
C120        C  0.53118421  0.00696888  0.08364136     0.28800
C121        C  0.46481265  0.01251293  0.92120639     0.28700
C122        C  0.41972109  0.01143416  0.96623878     0.28700
C123        C  0.57851942  0.99724608  0.96728015     0.37400
C124        C  0.53522151  0.99837935  0.92118520     0.37400
C125        C  0.46089017  0.99179906  0.08299489     0.37400
C126        C  0.41748248  0.99422896  0.03715489     0.37400
C127        C  0.59190444  0.02587878  0.07271527    -0.20100
C128        C  0.56368116  0.02313180  0.10118885    -0.20100
C129        C  0.43156595  0.02756191  0.90437459    -0.20100
C130        C  0.40311969  0.02688158  0.93276104    -0.20100
C131        C  0.59662567  0.98424017  0.93353071    -0.21200
C132        C  0.56923116  0.98510537  0.90431142    -0.21200
C133        C  0.42621508  0.97949574  0.09965763    -0.21200
C134        C  0.39866493  0.98105801  0.07059770    -0.21200
C135        C  0.59711372  0.00385016  0.00365362    -0.16500
C136        C  0.49617726  0.99755629  0.10336888    -0.16500
C137        C  0.39913536  0.00267495  0.00115186    -0.16500
C138        C  0.50006087  0.00538693  0.90096864    -0.16500
H139        H  0.62110388  0.03694039  0.07689337     0.16400
H140        H  0.56678612  0.03185562  0.13141090     0.16400
H141        H  0.42800064  0.03746848  0.87456571     0.16400
H142        H  0.37336216  0.03609282  0.92895183     0.16400
H143        H  0.62653152  0.97531832  0.93019251     0.14700
H144        H  0.57384935  0.97692289  0.87413343     0.14700
H145        H  0.42118752  0.97089005  0.12970244     0.14700
H146        H  0.36817158  0.97381191  0.07384633     0.14700
H147        H  0.52165716  0.98343629  0.02654164     0.27900
H148        H  0.47530925  0.98689658  0.97720209     0.27900
N149        N  0.54211265  0.98882222  0.45854239    -0.34800
N150        N  0.54322269  0.99147951  0.54476757    -0.55400
N151        N  0.45909686  0.99537917  0.54516172    -0.34800
N152        N  0.45809272  0.98702424  0.45906467    -0.55400
C153        C  0.58019757  0.98220111  0.46536452     0.28700
C154        C  0.53530763  0.98112266  0.42028381     0.28800
C155        C  0.46558342  0.99183201  0.58411054     0.28700
C156        C  0.42079840  0.98876364  0.53898250     0.28700
C157        C  0.58173465  0.99559078  0.53752635     0.37400
C158        C  0.53788544  0.99894794  0.58331722     0.37400
C159        C  0.46369665  0.99123139  0.42005817     0.37400
C160        C  0.41992562  0.99336956  0.46570462     0.37400
C161        C  0.59786093  0.97025065  0.43093541    -0.20100
C162        C  0.56956128  0.96955105  0.40255619    -0.20100
C163        C  0.43076344  0.98347817  0.60292990    -0.20100
C164        C  0.40256799  0.98153001  0.57452227    -0.20100
C165        C  0.60101287  0.00506039  0.57182100    -0.21200
C166        C  0.57329543  0.00717637  0.60074849    -0.21200
C167        C  0.42883360  0.99967190  0.40184821    -0.21200
C168        C  0.40110789  0.00086032  0.43069311    -0.21200
C169        C  0.60017411  0.98946334  0.50087825    -0.16500
C170        C  0.49960030  0.98641420  0.40039188    -0.16500
C171        C  0.40126746  0.99131038  0.50259880    -0.16500
C172        C  0.50174735  0.99704841  0.60340688    -0.16500
H173        H  0.62818034  0.96331390  0.42651264     0.16400
H174        H  0.57384861  0.96186327  0.37218878     0.16400
H175        H  0.42607496  0.97925935  0.63395778     0.16400
H176        H  0.37200886  0.97569904  0.57955330     0.16400
H177        H  0.63189271  0.00983288  0.57567010     0.14700
H178        H  0.57863288  0.01400388  0.63115113     0.14700
H179        H  0.42384566  0.00456292  0.37100370     0.14700
H180        H  0.37058018  0.00685620  0.42637083     0.14700
H181        H  0.52320015  0.00244520  0.47767027     0.27900
H182        H  0.47868546  0.00566252  0.52444408     0.27900
C183        C  0.52326506  0.03041275  0.79430355     0.14400
C184        C  0.50012537  0.00349399  0.77387923     0.01400
C185        C  0.47666034  0.97760560  0.79543125     0.16400
C186        C  0.47653292  0.97840540  0.83648833     0.25800
C187        C  0.49992066  0.00508622  0.85699898    -0.40500
C188        C  0.52313398  0.03124594  0.83540209     0.32800
C189        C  0.50073612  0.00208759  0.73019967     0.01500
F190        F  0.45350515  0.95172261  0.77662798    -0.12900
F191        F  0.54565058  0.05770246  0.85417542    -0.13400
C192        C  0.51378009  0.96881096  0.71059870     0.16400
C193        C  0.51437651  0.96736512  0.66956084     0.25800
C194        C  0.50175360  0.99905400  0.64722795    -0.40500
C195        C  0.48832991  0.03220918  0.66675038     0.32800
C196        C  0.48807067  0.03381507  0.70783051     0.14500
F197        F  0.52641590  0.93781811  0.73128295    -0.12800
F198        F  0.47534527  0.06298002  0.64594537    -0.13400
F199        F  0.52689303  0.93480372  0.65149192    -0.15600
F200        F  0.47472224  0.06609002  0.72583561    -0.14200
F201        F  0.54662897  0.05542317  0.77439258    -0.14200
F202        F  0.45377297  0.95279314  0.85633089    -0.15600
C203        C  0.48275027  0.95846172  0.29382883     0.14400
C204        C  0.49860607  0.99051861  0.27372040     0.01400
C205        C  0.51516434  0.02090326  0.29560188     0.16400
C206        C  0.51576720  0.01930201  0.33660947     0.25800
C207        C  0.49988675  0.98731319  0.35661221    -0.40500
C208        C  0.48342390  0.95687120  0.33486009     0.32800
C209        C  0.49785130  0.99227360  0.23005440     0.01500
F210        F  0.53121694  0.05197939  0.27720180    -0.12900
F211        F  0.46778576  0.92570755  0.35346991    -0.13400
C212        C  0.47916603  0.02286620  0.21056463     0.16400
C213        C  0.47829896  0.02436129  0.16953525     0.25800
C214        C  0.49636960  0.99552393  0.14712386    -0.40500
C215        C  0.51543346  0.96518250  0.16652189     0.32800
C216        C  0.51596322  0.96343353  0.20755392     0.14500
F217        F  0.46129458  0.05109987  0.23130871    -0.12800
F218        F  0.53351109  0.93718187  0.14563097    -0.13400
F219        F  0.46018037  0.05425069  0.15156716    -0.15600
F220        F  0.53488274  0.93394582  0.22538073    -0.14200
F221        F  0.46581967  0.92903969  0.27371323    -0.14200
F222        F  0.53146426  0.04924626  0.35694661    -0.15600
C223        C  0.21285468  0.00761122  0.53567417     0.14400
C224        C  0.23359844  0.99654555  0.50212180     0.01400
C225        C  0.21312046  0.98586141  0.46824987     0.16400
C226        C  0.17251738  0.98576992  0.46806695     0.25800
C227        C  0.15173501  0.99708997  0.50158734    -0.40500
C228        C  0.17226907  0.00800522  0.53537950     0.32800
C229        C  0.27654214  0.99521064  0.50268937     0.01500
F230        F  0.23252053  0.97609646  0.43511498    -0.12900
F231        F  0.15301817  0.01786593  0.56857364    -0.13400
C232        C  0.29580979  0.96052255  0.49398218     0.16400
C233        C  0.33638693  0.95919957  0.49397164     0.25800
C234        C  0.35819797  0.99239735  0.50318216    -0.40500
C235        C  0.33907039  0.02698492  0.51216560     0.32800
C236        C  0.29848418  0.02845675  0.51182761     0.14500
F237        F  0.27523530  0.92781092  0.48603634    -0.12800
F238        F  0.35985902  0.05942135  0.52060410    -0.13400
F239        F  0.35446315  0.92556845  0.48502776    -0.15600
F240        F  0.28061965  0.06250117  0.51958741    -0.14200
F241        F  0.23189757  0.01708776  0.56908178    -0.14200
F242        F  0.15359443  0.97552573  0.43479934    -0.15600
C243        C  0.78876259  0.00858850  0.46163360     0.14400
C244        C  0.76802504  0.99980051  0.49601929     0.01400
C245        C  0.78846110  0.99390523  0.53097594     0.16400
C246        C  0.82903452  0.99597982  0.53150504     0.25800
C247        C  0.85002110  0.00400488  0.49698361    -0.40500
C248        C  0.82945157  0.01077515  0.46209557     0.32800
C249        C  0.72506545  0.99673858  0.49575662     0.01500
F250        F  0.76898362  0.98653075  0.56478352    -0.12900
F251        F  0.84872733  0.01809455  0.42815257    -0.13400
C252        C  0.70661634  0.96135776  0.50469333     0.16400
C253        C  0.66599495  0.95887388  0.50639290     0.25800
C254        C  0.64333065  0.99172842  0.49915270    -0.40500
C255        C  0.66171594  0.02689878  0.48955263     0.32800
C256        C  0.70231144  0.02942607  0.48793314     0.14500
F257        F  0.72803818  0.92920220  0.51146084    -0.12800
F258        F  0.64021617  0.05883153  0.48207502    -0.13400
F259        F  0.64870873  0.92444576  0.51487414    -0.15600
F260        F  0.71948210  0.06397497  0.47967751    -0.14200
F261        F  0.76963071  0.01396675  0.42739528    -0.14200
F262        F  0.84776677  0.99074198  0.56600893    -0.15600
C263        C  0.21019560  0.03550677  0.97979529     0.14400
C264        C  0.23096900  0.00305613  0.99300653     0.01400
C265        C  0.21024412  0.97010365  0.00570687     0.16400
C266        C  0.16961782  0.96948275  0.00501183     0.25800
C267        C  0.14899118  0.00199160  0.99228820    -0.40500
C268        C  0.16945854  0.03510253  0.97987258     0.32800
C269        C  0.27411818  0.00357167  0.99441853     0.01500
F270        F  0.22936867  0.93893608  0.02002977    -0.12900
F271        F  0.14995355  0.06680427  0.96737985    -0.13400
C272        C  0.29404269  0.03232118  0.01569440     0.16400
C273        C  0.33464600  0.03183545  0.01826309     0.25800
C274        C  0.35594179  0.00262758  0.99963201    -0.40500
C275        C  0.33613828  0.97389990  0.97842539     0.32800
C276        C  0.29559660  0.97443009  0.97569112     0.14500
F277        F  0.27411897  0.06038244  0.03470952    -0.12800
F278        F  0.35620375  0.94526549  0.96046108    -0.13400
F279        F  0.35327196  0.05991120  0.03883314    -0.15600
F280        F  0.27729564  0.94667915  0.95438263    -0.14200
F281        F  0.22934610  0.06739945  0.96647122    -0.14200
F282        F  0.15030899  0.93768673  0.01832928    -0.15600
C283        C  0.69997024  0.98024040  0.03611967     0.14400
C284        C  0.72262301  0.00377758  0.01120298     0.01400
C285        C  0.70368385  0.02734951  0.98361523     0.16400
C286        C  0.66307636  0.02789411  0.98154507     0.25800
C287        C  0.64053045  0.00347381  0.00565424    -0.40500
C288        C  0.65950025  0.97930767  0.03263633     0.32800
C289        C  0.76584844  0.00304613  0.01323885     0.01500
F290        F  0.72448958  0.04938422  0.95805692    -0.12900
F291        F  0.63871007  0.95492005  0.05594420    -0.13400
C292        C  0.78582296  0.96759627  0.01260405     0.16400
C293        C  0.82644334  0.96689835  0.01280687     0.25800
C294        C  0.84793870  0.00157809  0.01229704    -0.40500
C295        C  0.82818766  0.03700885  0.01341475     0.32800
C296        C  0.78755099  0.03773231  0.01464636     0.14500
F297        F  0.76609956  0.93353879  0.01016975    -0.12800
F298        F  0.84828157  0.07096351  0.01389388    -0.13400
F299        F  0.84477089  0.93225950  0.01148626    -0.15600
F300        F  0.76943564  0.07238272  0.01753251    -0.14200
F301        F  0.71695195  0.95853263  0.06436611    -0.14200
F302        F  0.64575454  0.05238700  0.95597426    -0.15600
C303        C  0.98285771  0.03639779  0.79192036     0.14400
C304        C  0.98992377  0.00234544  0.77110350     0.01400
C305        C  0.99433298  0.96712301  0.79077972     0.16400
C306        C  0.99347760  0.96622194  0.83143494     0.25800
C307        C  0.98785643  0.00058258  0.85256542    -0.40500
C308        C  0.98148397  0.03552802  0.83256466     0.32800
C309        C  0.99294187  0.00365783  0.72868828     0.01500
F310        F  0.99949613  0.93377767  0.77053628    -0.12900
F311        F  0.97568925  0.06905195  0.85231195    -0.13400
C312        C  0.02941852  0.00061995  0.71061220     0.16400
C313        C  0.03215674  0.00159931  0.66998679     0.25800
C314        C  0.99827234  0.00488929  0.64750748    -0.40500
C315        C  0.96194270  0.00864649  0.66575958     0.32800
C316        C  0.95931886  0.00818140  0.70627708     0.14500
F317        F  0.06214229  0.99673014  0.73236901    -0.12800
F318        F  0.92916631  0.01341058  0.64426549    -0.13400
F319        F  0.06751151  0.99814846  0.65262417    -0.15600
F320        F  0.92402927  0.01165740  0.72372331    -0.14200
F321        F  0.97846144  0.07055593  0.77281309    -0.14200
F322        F  0.99782377  0.93183981  0.85014773    -0.15600
C323        C  0.00124732  0.95461898  0.20818352     0.14400
C324        C  0.01144895  0.98782338  0.22917852     0.01400
C325        C  0.02133633  0.02210656  0.20975929     0.16400
C326        C  0.02036600  0.02360242  0.16922445     0.25800
C327        C  0.00943515  0.99063875  0.14773007    -0.40500
C328        C  0.00026894  0.95591876  0.16749507     0.32800
C329        C  0.00965199  0.98790112  0.27157295     0.01500
F330        F  0.03062163  0.05447398  0.23027276    -0.12900
F331        F  0.99040370  0.92336290  0.14755736    -0.13400
C332        C  0.04385836  0.98459724  0.29329563     0.16400
C333        C  0.04257057  0.98849528  0.33372658     0.25800
C334        C  0.00697347  0.99590552  0.35246385    -0.40500
C335        C  0.97274509  0.99913277  0.33049136     0.32800
C336        C  0.97410580  0.99498102  0.29011453     0.14500
F337        F  0.07839217  0.97819824  0.27519513    -0.12800
F338        F  0.93798201  0.00545022  0.34817763    -0.17200
F339        F  0.07612517  0.98611724  0.35443151    -0.15600
F340        F  0.94096973  0.99851345  0.26894427    -0.14200
F341        F  0.99179597  0.92129940  0.22716780    -0.14200
F342        F  0.02835753  0.05778046  0.15119820    -0.15600
C343        C  0.01024246  0.78845448  0.46955656     0.14400
C344        C  0.99232945  0.76763887  0.49997498     0.01400
C345        C  0.97442565  0.78793874  0.53060188     0.16400
C346        C  0.97492806  0.82849196  0.53110816     0.25800
C347        C  0.99347533  0.84955831  0.50090192    -0.40500
C348        C  0.01070700  0.82889010  0.46986030     0.32800
C349        C  0.99264121  0.72475236  0.49971714     0.01500
F350        F  0.95731743  0.76841071  0.56060229    -0.12900
F351        F  0.02763716  0.84770450  0.43930296    -0.13400
C352        C  0.02811186  0.70475295  0.50026889     0.16400
C353        C  0.02851680  0.66429905  0.49943391     0.25800
C354        C  0.99348738  0.64324436  0.49847276    -0.40500
C355        C  0.95803148  0.66311743  0.49796269     0.32800
C356        C  0.95759603  0.70360867  0.49844093     0.14500
F357        F  0.06232197  0.72445242  0.50238647    -0.12800
F358        F  0.92390225  0.64319664  0.49699080    -0.13400
F359        F  0.06303635  0.64552807  0.50024485    -0.15600
F360        F  0.92301536  0.72223468  0.49708123    -0.14200
F361        F  0.02694099  0.76952081  0.43915339    -0.14200
F362        F  0.95801385  0.84696652  0.56166459    -0.15600
C363        C  0.98855658  0.21470735  0.46879162     0.14400
C364        C  0.00169935  0.23470712  0.50204096     0.01400
C365        C  0.01601529  0.21350776  0.53392263     0.16400
C366        C  0.01683907  0.17301793  0.53278994     0.25800
C367        C  0.00334285  0.15276454  0.49961849    -0.40500
C368        C  0.98932139  0.17421583  0.46755446     0.32800
C369        C  0.00002663  0.27761832  0.50358287     0.01500
F370        F  0.02823242  0.23203154  0.56670193    -0.12900
F371        F  0.97686235  0.15611672  0.43463495    -0.13400
C372        C  0.96432760  0.29673795  0.49901915     0.16400
C373        C  0.96282595  0.33719832  0.49928715     0.25800
C374        C  0.99685271  0.35911611  0.50480168    -0.40500
C375        C  0.03237118  0.34016677  0.51034815     0.32800
C376        C  0.03403621  0.29971883  0.50943869     0.14500
F377        F  0.93085168  0.27614534  0.49482576    -0.12800
F378        F  0.06546666  0.36099236  0.51607984    -0.13400
F379        F  0.92819691  0.35508399  0.49419910    -0.15600
F380        F  0.06897661  0.28214486  0.51337466    -0.14200
F381        F  0.97544798  0.23449831  0.43717955    -0.14200
F382        F  0.02979416  0.15369819  0.56475498    -0.15600
C383        C  0.97458059  0.48520042  0.79557286     0.14400
C384        C  0.00428989  0.50306474  0.77340494     0.01400
C385        C  0.03620702  0.51954292  0.79328072     0.16400
C386        C  0.03835373  0.51809770  0.83425294     0.25800
C387        C  0.00856456  0.50038675  0.85624759    -0.40500
C388        C  0.97663888  0.48404085  0.83653548     0.32800
C389        C  0.00223275  0.50395649  0.72970146     0.01500
F390        F  0.06504954  0.53766306  0.77303307    -0.12900
F391        F  0.94732807  0.46706612  0.85710698    -0.13400
C392        C  0.96963132  0.51941145  0.71042093     0.16400
C393        C  0.96737125  0.51919676  0.66939776     0.25800
C394        C  0.99772577  0.50375339  0.64679264    -0.40500
C395        C  0.03055790  0.48896996  0.66594767     0.32800
C396        C  0.03273119  0.48888503  0.70691261     0.14500
F397        F  0.94016352  0.53522268  0.73132815    -0.12800
F398        F  0.06055410  0.47449243  0.64482203    -0.13400
F399        F  0.93541956  0.53386679  0.65166799    -0.15600
F400        F  0.06433924  0.47320392  0.72436253    -0.14200
F401        F  0.94383981  0.46816460  0.77750559    -0.14200
F402        F  0.06957871  0.53397741  0.85256336    -0.15600
C403        C  0.97488882  0.51609139  0.20769138     0.14400
C404        C  0.00342893  0.49669696  0.22950111     0.01400
C405        C  0.03368026  0.47797503  0.20946327     0.16400
C406        C  0.03559465  0.47894900  0.16846469     0.25800
C407        C  0.00735135  0.49877322  0.14663232    -0.40500
C408        C  0.97683823  0.51713589  0.16667774     0.32800
C409        C  0.00213750  0.49671437  0.27310111     0.01500
F410        F  0.06112360  0.45828164  0.22967564    -0.12900
F411        F  0.94876230  0.53588151  0.14642509    -0.13400
C412        C  0.97104617  0.47913855  0.29339103     0.16400
C413        C  0.96968701  0.47980557  0.33443152     0.25800
C414        C  0.99921765  0.49831786  0.35599627    -0.40500
C415        C  0.03047020  0.51560862  0.33568599     0.32800
C416        C  0.03198279  0.51466845  0.29467704     0.14500
F417        F  0.94226820  0.46082346  0.27342674    -0.12800
F418        F  0.05956819  0.53340407  0.35565412    -0.13400
F419        F  0.93942990  0.46247720  0.35323845    -0.15600
F420        F  0.06233663  0.53187716  0.27590695    -0.14200
F421        F  0.94546073  0.53460954  0.22620393    -0.14200
F422        F  0.06503848  0.46044986  0.14996991    -0.15600
C423        C  0.98312748  0.78574399  0.02716367     0.14400
C424        C  0.99962588  0.76572192  0.99553745     0.01400
C425        C  0.01439048  0.78699307  0.96362792     0.16400
C426        C  0.01338854  0.82749736  0.96369498     0.25800
C427        C  0.99740741  0.84766136  0.99567139    -0.40500
C428        C  0.98193943  0.82618160  0.02724657     0.32800
C429        C  0.00228298  0.72279692  0.99652199     0.01500
F430        F  0.02948059  0.76851124  0.93211382    -0.12900
F431        F  0.96675842  0.84422261  0.05898487    -0.13400
C432        C  0.96884532  0.69991107  0.00294964     0.16400
C433        C  0.97168498  0.65963538  0.00581412     0.25800
C434        C  0.00781858  0.64149525  0.00158239    -0.40500
C435        C  0.04111369  0.66409513  0.99428642     0.32800
C436        C  0.03846134  0.70445651  0.99212465     0.14500
F437        F  0.93329665  0.71652804  0.00559367    -0.12800
F438        F  0.07612741  0.64697431  0.98907077    -0.13400
F439        F  0.93904056  0.63812044  0.01178353    -0.15600
F440        F  0.07134078  0.72568050  0.98636094    -0.14200
F441        F  0.96927167  0.76613770  0.05874935    -0.14200
F442        F  0.02773290  0.84688069  0.93218527    -0.15600
C443        C  0.97853289  0.21206405  0.97228034     0.14400
C444        C  0.99961002  0.23292569  0.00042375     0.01400
C445        C  0.01952384  0.21264850  0.02973882     0.16400
C446        C  0.01876002  0.17217716  0.03075950     0.25800
C447        C  0.99811264  0.15097059  0.00223883    -0.40500
C448        C  0.97777529  0.17157782  0.97308860     0.32800
C449        C  0.00125271  0.27581428  0.99919835     0.01500
F450        F  0.03940521  0.23217919  0.05781092    -0.12900
F451        F  0.95762649  0.15270856  0.94475121    -0.13400
C452        C  0.96706903  0.29774518  0.00206988     0.16400
C453        C  0.96900462  0.33822818  0.00233336     0.25800
C454        C  0.00514012  0.35734349  0.00014031    -0.40500
C455        C  0.03922302  0.33547411  0.99680435     0.32800
C456        C  0.03727941  0.29505768  0.99598590     0.14500
F457        F  0.93191634  0.27993414  0.00542347    -0.12800
F458        F  0.07434835  0.35341006  0.99396160    -0.13400
F459        F  0.93569298  0.35887097  0.00515759    -0.15600
F460        F  0.07054897  0.27462400  0.99151280    -0.14200
F461        F  0.95942714  0.23090756  0.94331845    -0.14200
F462        F  0.03803361  0.15393086  0.05998580    -0.15600
loop_ 
_geom_bond_atom_site_label_1 
_geom_bond_atom_site_label_2 
_geom_bond_distance 
_geom_bond_site_symmetry_2 
_ccdc_geom_bond_type 
N1            C6   1.358       .  A
N1            C5   1.356       .  A
N1           H33   1.032       .  S
N2            C9   1.352       .  A
N2           C10   1.354       .  A
N3            C8   1.354       .  A
N3            C7   1.357       .  A
N3           H34   1.034       .  S
N4           C11   1.355       .  A
N4           C12   1.353       .  A
C5           C13   1.388   1_455  A
C5           C21   1.421       .  A
C6           C22   1.421       .  A
C6           C14   1.387   1_455  A
C7           C15   1.386   1_455  A
C7           C24   1.417       .  A
C8           C23   1.417   1_556  A
C8           C16   1.388   1_455  A
C9           C21   1.418   1_556  A
C9           C17   1.388       .  A
C10          C24   1.415       .  A
C10          C18   1.385       .  A
C11          C19   1.387       .  A
C11          C22   1.420       .  A
C12          C20   1.386       .  A
C12          C23   1.417       .  A
C13          C14   1.375       .  A
C13          H25   1.082       .  S
C14          H26   1.082       .  S
C15          C16   1.374       .  A
C15          H27   1.082       .  S
C16          H28   1.082       .  S
C17          C18   1.372       .  A
C17          H29   1.082       .  S
C18          H30   1.082       .  S
C19          C20   1.376       .  A
C19          H31   1.082       .  S
C20          H32   1.082       .  S
C21         C454   1.489       .  S
C22         C407   1.501       .  S
C23         C434   1.487       .  S
C24         C387   1.498       .  S
N35          C40   1.358       .  A
N35          C39   1.354       .  A
N35          H67   1.036       .  S
N36          C43   1.353       .  A
N36          C44   1.355       .  A
N37          C42   1.354   1_655  A
N37          C41   1.357   1_655  A
N37          H68   1.035       .  S
N38          C45   1.355       .  A
N38          C46   1.353       .  A
C39          C47   1.388   1_655  A
C39          C55   1.420       .  A
C40          C56   1.420       .  A
C40          C48   1.386   1_655  A
C41          C49   1.387       .  A
C41          C58   1.421   1_455  A
C42          C57   1.420   1_455  A
C42          C50   1.388       .  A
C43          C55   1.418       .  A
C43          C51   1.387       .  A
C44          C58   1.419       .  A
C44          C52   1.386       .  A
C45          C53   1.386       .  A
C45          C56   1.418       .  A
C46          C54   1.387       .  A
C46          C57   1.417       .  A
C47          C48   1.375       .  A
C47          H59   1.082       .  S
C48          H60   1.082       .  S
C49          C50   1.375       .  A
C49          H61   1.082       .  S
C50          H62   1.082       .  S
C51          C52   1.373       .  A
C51          H63   1.082       .  S
C52          H64   1.082       .  S
C53          C54   1.373       .  A
C53          H65   1.082       .  S
C54          H66   1.082       .  S
C55         C354   1.487       .  S
C56         C394   1.499       .  S
C57         C374   1.487       .  S
C58         C414   1.501       .  S
Zn69         O73   1.951   1_445  S
Zn69         O74   2.015       .  S
Zn69         O78   1.988       .  S
Zn69         O85   2.027       .  S
Zn70         O73   1.951   1_456  S
Zn70         O75   2.021       .  S
Zn70         O77   2.024       .  S
Zn70         O81   1.987       .  S
Zn71         O73   1.953       .  S
Zn71         O76   1.979       .  S
Zn71         O79   2.011       .  S
Zn71         O82   2.014       .  S
Zn72         O73   1.949   1_546  S
Zn72         O80   2.008       .  S
Zn72         O83   1.984       .  S
Zn72         O84   2.008       .  S
O74          C86   1.272   1_554  A
O75          C87   1.272   1_455  A
O76          C88   1.271   1_655  A
O77          C86   1.273   1_565  A
O78          C88   1.273   1_545  A
O79          C87   1.271   1_554  A
O80          C89   1.272   1_556  A
O81          C90   1.272   1_465  A
O82          C89   1.272   1_565  A
O83          C90   1.271       .  A
O84          C91   1.271   1_556  A
O85          C91   1.273   1_455  A
C86         C267   1.471       .  S
C87         C427   1.488       .  S
C88         C327   1.464       .  S
C89         C294   1.475       .  S
C90         C307   1.460       .  S
C91         C447   1.491       .  S
Zn92         O96   1.947   1_665  S
Zn92         O97   2.003       .  S
Zn92        O101   1.975       .  S
Zn92        O108   2.033       .  S
Zn93         O96   1.956   1_655  S
Zn93         O98   2.031       .  S
Zn93        O100   2.025       .  S
Zn93        O104   1.990       .  S
Zn94         O96   1.951       .  S
Zn94         O99   1.983       .  S
Zn94        O102   2.021       .  S
Zn94        O105   2.004       .  S
Zn95         O96   1.945   1_565  S
Zn95        O103   2.001       .  S
Zn95        O106   1.961       .  S
Zn95        O107   2.007       .  S
O97         C109   1.272   1_565  A
O98         C110   1.274   1_655  A
O99         C111   1.270       .  A
O100        C109   1.274       .  A
O101        C111   1.271   1_665  A
O102        C110   1.273       .  A
O103        C112   1.271       .  A
O104        C113   1.272   1_645  A
O105        C112   1.272   1_545  A
O106        C113   1.268       .  A
O107        C114   1.271   1_455  A
O108        C114   1.274       .  A
C109        C247   1.481       .  S
C110        C367   1.490       .  S
C111        C314   1.452   1_455  S
C112        C227   1.474       .  S
C113        C334   1.455       .  S
C114        C347   1.490       .  S
N115        C120   1.356   1_565  A
N115        C119   1.353   1_565  A
N115        H147   1.041       .  S
N116        C123   1.352   1_545  A
N116        C124   1.355   1_545  A
N117        C122   1.353       .  A
N117        C121   1.357       .  A
N117        H148   1.040   1_545  S
N118        C125   1.354   1_545  A
N118        C126   1.351   1_545  A
C119        C127   1.389       .  A
C119        C135   1.418       .  A
C120        C136   1.415   1_545  A
C120        C128   1.385       .  A
C121        C129   1.386       .  A
C121        C138   1.418       .  A
C122        C137   1.418   1_556  A
C122        C130   1.388       .  A
C123        C135   1.418   1_566  A
C123        C131   1.387       .  A
C124        C138   1.417   1_565  A
C124        C132   1.385       .  A
C125        C133   1.385       .  A
C125        C136   1.414       .  A
C126        C134   1.387       .  A
C126        C137   1.416   1_565  A
C127        C128   1.376       .  A
C127        H139   1.082       .  S
C128        H140   1.082       .  S
C129        C130   1.377       .  A
C129        H141   1.082       .  S
C130        H142   1.082       .  S
C131        C132   1.376       .  A
C131        H143   1.082       .  S
C132        H144   1.082       .  S
C133        C134   1.376       .  A
C133        H145   1.082       .  S
C134        H146   1.082       .  S
C135        C287   1.496       .  S
C136        C214   1.498       .  S
C137        C274   1.487   1_554  S
C138        C187   1.504       .  S
N149        C154   1.356       .  A
N149        C153   1.352       .  A
N149        H181   1.038   1_565  S
N150        C157   1.354       .  A
N150        C158   1.356       .  A
N151        C156   1.353       .  A
N151        C155   1.356       .  A
N151        H182   1.037   1_565  S
N152        C159   1.355       .  A
N152        C160   1.352       .  A
C153        C161   1.389       .  A
C153        C169   1.419       .  A
C154        C170   1.418       .  A
C154        C162   1.386       .  A
C155        C163   1.387       .  A
C155        C172   1.420       .  A
C156        C171   1.418       .  A
C156        C164   1.388       .  A
C157        C169   1.420       .  A
C157        C165   1.387   1_565  A
C158        C172   1.420       .  A
C158        C166   1.385   1_565  A
C159        C167   1.385       .  A
C159        C170   1.416       .  A
C160        C168   1.387   1_565  A
C160        C171   1.416       .  A
C161        C162   1.376       .  A
C161        H173   1.082       .  S
C162        H174   1.082       .  S
C163        C164   1.376       .  A
C163        H175   1.082       .  S
C164        H176   1.082       .  S
C165        C166   1.375       .  A
C165        H177   1.082       .  S
C166        H178   1.082       .  S
C167        C168   1.371   1_565  A
C167        H179   1.082   1_565  S
C168        H180   1.082       .  S
C169        C254   1.487       .  S
C170        C207   1.497       .  S
C171        C234   1.483       .  S
C172        C194   1.500       .  S
C183        C184   1.408       .  A
C183        C188   1.406       .  A
C183        F201   1.358       .  S
C184        C185   1.407   1_545  A
C184        C189   1.495       .  S
C185        C186   1.404       .  A
C185        F190   1.358       .  S
C186        C187   1.409   1_565  A
C186        F202   1.358       .  S
C187        C188   1.409       .  A
C188        F191   1.358       .  S
C189        C192   1.408   1_545  A
C189        C196   1.408       .  A
C192        C193   1.404       .  A
C192        F197   1.357       .  S
C193        C194   1.406       .  A
C193        F199   1.357       .  S
C194        C195   1.408   1_565  A
C195        C196   1.406       .  A
C195        F198   1.358       .  S
C196        F200   1.358       .  S
C203        C204   1.409       .  A
C203        C208   1.404       .  A
C203        F221   1.358       .  S
C204        C205   1.409   1_565  A
C204        C209   1.495       .  S
C205        C206   1.404       .  A
C205        F210   1.358       .  S
C206        C207   1.406   1_545  A
C206        F222   1.358       .  S
C207        C208   1.406       .  A
C208        F211   1.358       .  S
C209        C212   1.409   1_565  A
C209        C216   1.408       .  A
C212        C213   1.404       .  A
C212        F217   1.358       .  S
C213        C214   1.406   1_545  A
C213        F219   1.357       .  S
C214        C215   1.407       .  A
C215        C216   1.405       .  A
C215        F218   1.358       .  S
C216        F220   1.358       .  S
C223        C224   1.405   1_545  A
C223        C228   1.397       .  A
C223        F241   1.358       .  S
C224        C225   1.406       .  A
C224        C229   1.479       .  S
C225        C226   1.397       .  A
C225        F230   1.358       .  S
C226        C227   1.407       .  A
C226        F242   1.358       .  S
C227        C228   1.407   1_565  A
C228        F231   1.358       .  S
C229        C232   1.406       .  A
C229        C236   1.407   1_565  A
C232        C233   1.397       .  A
C232        F237   1.358       .  S
C233        C234   1.403       .  A
C233        F239   1.357       .  S
C234        C235   1.403   1_565  A
C235        C236   1.398       .  A
C235        F238   1.358       .  S
C236        F240   1.358       .  S
C243        C244   1.406   1_545  A
C243        C248   1.402       .  A
C243        F261   1.358       .  S
C244        C245   1.404       .  A
C244        C249   1.481       .  S
C245        C246   1.397       .  A
C245        F250   1.358       .  S
C246        C247   1.409   1_565  A
C246        F262   1.358       .  S
C247        C248   1.409       .  A
C248        F251   1.358       .  S
C249        C252   1.407       .  A
C249        C256   1.405   1_565  A
C252        C253   1.401       .  A
C252        F257   1.358       .  S
C253        C254   1.404       .  A
C253        F259   1.357       .  S
C254        C255   1.405   1_565  A
C255        C256   1.400       .  A
C255        F258   1.357       .  S
C256        F260   1.358       .  S
C263        C264   1.409       .  A
C263        C268   1.402       .  A
C263        F281   1.358       .  S
C264        C265   1.407   1_546  A
C264        C269   1.485       .  S
C265        C266   1.398       .  A
C265        F270   1.358       .  S
C266        C267   1.402   1_564  A
C266        F282   1.358       .  S
C267        C268   1.404       .  A
C268        F271   1.358       .  S
C269        C272   1.408   1_556  A
C269        C276   1.408   1_545  A
C272        C273   1.400       .  A
C272        F277   1.358       .  S
C273        C274   1.405   1_554  A
C273        F279   1.358       .  S
C274        C275   1.404   1_545  A
C275        C276   1.398       .  A
C275        F278   1.358       .  S
C276        F280   1.358       .  S
C283        C284   1.408   1_565  A
C283        C288   1.398       .  A
C283        F301   1.358       .  S
C284        C285   1.409   1_554  A
C284        C289   1.489       .  S
C285        C286   1.399       .  A
C285        F290   1.358       .  S
C286        C287   1.407   1_556  A
C286        F302   1.358       .  S
C287        C288   1.408   1_545  A
C288        F291   1.358       .  S
C289        C292   1.409   1_545  A
C289        C296   1.409       .  A
C292        C293   1.398       .  A
C292        F297   1.358       .  S
C293        C294   1.404   1_565  A
C293        F299   1.358       .  S
C294        C295   1.405       .  A
C295        C296   1.399       .  A
C295        F298   1.358       .  S
C296        F300   1.358       .  S
C303        C304   1.399       .  A
C303        C308   1.391       .  A
C303        F321   1.358       .  S
C304        C305   1.400   1_545  A
C304        C309   1.455       .  S
C305        C306   1.391       .  A
C305        F310   1.358       .  S
C306        C307   1.406   1_565  A
C306        F322   1.358       .  S
C307        C308   1.406       .  A
C308        F311   1.358       .  S
C309        C312   1.402   1_655  A
C309        C316   1.399       .  A
C312        C313   1.393       .  A
C312        F317   1.358   1_545  S
C313        C314   1.403   1_455  A
C313        F319   1.358   1_545  S
C314        C315   1.403       .  A
C315        C316   1.388       .  A
C315        F318   1.358       .  S
C316        F320   1.358       .  S
C323        C324   1.398       .  A
C323        C328   1.393       .  A
C323        F341   1.358   1_455  S
C324        C325   1.397   1_565  A
C324        C329   1.451       .  S
C325        C326   1.388       .  A
C325        F330   1.358       .  S
C326        C327   1.407   1_545  A
C326        F342   1.358       .  S
C327        C328   1.410       .  A
C328        F331   1.358   1_455  S
C329        C332   1.398       .  A
C329        C336   1.400   1_455  A
C332        C333   1.390       .  A
C332        F337   1.358       .  S
C333        C334   1.406       .  A
C333        F339   1.359       .  S
C334        C335   1.403   1_455  A
C335        C336   1.389       .  A
C335        F338   1.358   1_565  S
C336        F340   1.358       .  S
C343        C344   1.403   1_455  A
C343        C348   1.398       .  A
C343        F361   1.358       .  S
C344        C345   1.405       .  A
C344        C349   1.483       .  S
C345        C346   1.402       .  A
C345        F350   1.358       .  S
C346        C347   1.412       .  A
C346        F362   1.358       .  S
C347        C348   1.412   1_655  A
C348        F351   1.358       .  S
C349        C352   1.407   1_655  A
C349        C356   1.406       .  A
C352        C353   1.399       .  A
C352        F357   1.358       .  S
C353        C354   1.404   1_455  A
C353        F359   1.358       .  S
C354        C355   1.404       .  A
C355        C356   1.400       .  A
C355        F358   1.358       .  S
C356        F360   1.358       .  S
C363        C364   1.406   1_655  A
C363        C368   1.401       .  A
C363        F381   1.358       .  S
C364        C365   1.405       .  A
C364        C369   1.486       .  S
C365        C366   1.401       .  A
C365        F370   1.358       .  S
C366        C367   1.412       .  A
C366        F382   1.358       .  S
C367        C368   1.411   1_455  A
C368        F371   1.358       .  S
C369        C372   1.408   1_455  A
C369        C376   1.408       .  A
C372        C373   1.400       .  A
C372        F377   1.358       .  S
C373        C374   1.403       .  A
C373        F379   1.358       .  S
C374        C375   1.404   1_655  A
C375        C376   1.400       .  A
C375        F378   1.358       .  S
C376        F380   1.358       .  S
C383        C384   1.410   1_655  A
C383        C388   1.403       .  A
C383        F401   1.357       .  S
C384        C385   1.410       .  A
C384        C389   1.497       .  S
C385        C386   1.404       .  A
C385        F390   1.358       .  S
C386        C387   1.406       .  A
C386        F402   1.358       .  S
C387        C388   1.406   1_455  A
C388        F391   1.358       .  S
C389        C392   1.410   1_455  A
C389        C396   1.409       .  A
C392        C393   1.405       .  A
C392        F397   1.358       .  S
C393        C394   1.407       .  A
C393        F399   1.358       .  S
C394        C395   1.406   1_655  A
C395        C396   1.403       .  A
C395        F398   1.357       .  S
C396        F400   1.357       .  S
C403        C404   1.407   1_655  A
C403        C408   1.404       .  A
C403        F421   1.358       .  S
C404        C405   1.407       .  A
C404        C409   1.492       .  S
C405        C406   1.404       .  A
C405        F410   1.358       .  S
C406        C407   1.408       .  A
C406        F422   1.357       .  S
C407        C408   1.408   1_455  A
C408        F411   1.358       .  S
C409        C412   1.407   1_455  A
C409        C416   1.407       .  A
C412        C413   1.404       .  A
C412        F417   1.358       .  S
C413        C414   1.408       .  A
C413        F419   1.358       .  S
C414        C415   1.408   1_655  A
C415        C416   1.404       .  A
C415        F418   1.358       .  S
C416        F420   1.358       .  S
C423        C424   1.406   1_554  A
C423        C428   1.399       .  A
C423        F441   1.358       .  S
C424        C425   1.407   1_655  A
C424        C429   1.488   1_655  S
C425        C426   1.401       .  A
C425        F430   1.358       .  S
C426        C427   1.410   1_455  A
C426        F442   1.358       .  S
C427        C428   1.411   1_556  A
C428        F431   1.358       .  S
C429        C432   1.408   1_456  A
C429        C436   1.409       .  A
C432        C433   1.400       .  A
C432        F437   1.358       .  S
C433        C434   1.404   1_655  A
C433        F439   1.358       .  S
C434        C435   1.404   1_554  A
C435        C436   1.401       .  A
C435        F438   1.357       .  S
C436        F440   1.358       .  S
C443        C444   1.404   1_556  A
C443        C448   1.400       .  A
C443        F461   1.358       .  S
C444        C445   1.405   1_655  A
C444        C449   1.484   1_654  S
C445        C446   1.400       .  A
C445        F450   1.358       .  S
C446        C447   1.411   1_455  A
C446        F462   1.358       .  S
C447        C448   1.414   1_554  A
C448        F451   1.358       .  S
C449        C452   1.407   1_456  A
C449        C456   1.407       .  A
C452        C453   1.401       .  A
C452        F457   1.358       .  S
C453        C454   1.406   1_655  A
C453        F459   1.358       .  S
C454        C455   1.404   1_554  A
C455        C456   1.399       .  A
C455        F458   1.358       .  S
C456        F460   1.358       .  S
