geometry optimzed in LAMMPS
_audit_creation_date              2020-11-30 
_audit_creation_method            'lammps2cif' 
_symmetry_space_group_name_H-M    'P1' 
_symmetry_Int_Tables_number       1 
_symmetry_cell_setting            triclinic 
loop_ 
_symmetry_equiv_pos_as_xyz 
  x,y,z 
_cell_length_a                    61.11814777 
_cell_length_b                    61.15291656688603 
_cell_length_c                    82.38479467027884 
_cell_angle_alpha                 89.57690409200839 
_cell_angle_beta                  90.19991043038175 
_cell_angle_gamma                 123.29279511665354 
loop_ 
_atom_site_label 
_atom_site_type_symbol 
_atom_site_fract_x 
_atom_site_fract_y 
_atom_site_fract_z 
_atom_site_charge 
N1          N  0.24121711  0.18467046  0.09603881    -0.27400
N2          N  0.25448903  0.19454991  0.10964765    -0.35200
C3          C  0.24546254  0.17567072  0.12095552     0.01000
C4          C  0.22549566  0.15277444  0.11416385     0.07000
C5          C  0.22307651  0.15907480  0.09839136    -0.06100
H6          H  0.25383772  0.17817080  0.13292411     0.07700
H7          H  0.21031347  0.14577779  0.08904731     0.08900
Cu8        Cu  0.28720840  0.23148924  0.11178773     0.44200
Cu9        Cu  0.25159603  0.20550124  0.07440456     0.42000
Cu10       Cu  0.31456919  0.26779703  0.07491031     0.43900
N11         N  0.32388425  0.26481646  0.11030953    -0.34700
N12         N  0.33418166  0.27828486  0.09675490    -0.29000
C13         C  0.35953123  0.29677625  0.09932993    -0.05100
C14         C  0.36530791  0.29441412  0.11520633     0.07100
C15         C  0.34232342  0.27410056  0.12185440     0.00900
H16         H  0.37309154  0.30967588  0.09005048     0.08600
H17         H  0.33955469  0.26561073  0.13384225     0.07600
N18         N  0.29202041  0.25160309  0.05438086    -0.36200
N19         N  0.26905848  0.22908020  0.05413779    -0.28400
C20         C  0.26018291  0.22391434  0.03879215    -0.03600
C21         C  0.27849834  0.24416054  0.02886122     0.05000
C22         C  0.29840432  0.26135402  0.03924176     0.03100
H23         H  0.24207520  0.20628508  0.03515359     0.08200
H24         H  0.31640173  0.27957955  0.03611832     0.07000
N25         N  0.30870692  0.31401548  0.84060918    -0.27400
N26         N  0.29433606  0.30443802  0.82734584    -0.35200
C27         C  0.30305015  0.32336588  0.81609193     0.01000
C28         C  0.32389227  0.34600928  0.82256162     0.07000
C29         C  0.32717540  0.33948180  0.83808656    -0.06100
H30         H  0.29379392  0.32115357  0.80446181     0.07700
H31         H  0.34077910  0.35258910  0.84720658     0.08900
Cu32       Cu  0.26052666  0.26810519  0.82572439     0.44200
Cu33       Cu  0.29955936  0.29305432  0.86216321     0.42000
Cu34       Cu  0.23582517  0.23074032  0.86220603     0.43900
N35         N  0.22343205  0.23540333  0.82772091    -0.34700
N36         N  0.21394500  0.22142552  0.84118204    -0.29000
C37         C  0.18831258  0.20325742  0.83907303    -0.05100
C38         C  0.18156287  0.20633403  0.82358042     0.07100
C39         C  0.20425786  0.22677278  0.81671235     0.00900
H40         H  0.17535062  0.18980379  0.84837577     0.08600
H41         H  0.20645644  0.23555631  0.80488053     0.07600
N42         N  0.25980693  0.24659620  0.88231391    -0.36200
N43         N  0.28281596  0.26910203  0.88237880    -0.28400
C44         C  0.29199150  0.27446509  0.89766292    -0.03600
C45         C  0.27381584  0.25443293  0.90776048     0.05000
C46         C  0.25373995  0.23706835  0.89751827     0.03100
H47         H  0.31001659  0.29227998  0.90118576     0.08200
H48         H  0.23561404  0.21911111  0.90082159     0.07000
O49         O  0.23464466  0.24295582  0.46987053    -0.73000
O50         O  0.30553431  0.27209246  0.48953977    -0.74000
O51         O  0.28269053  0.29196080  0.46920809    -0.62600
O52         O  0.25733220  0.22306808  0.49044926    -0.71000
O53         O  0.26912179  0.21060766  0.46871765    -0.70600
O54         O  0.29459911  0.27975281  0.44741247    -0.61800
O55         O  0.31716184  0.25956223  0.46776761    -0.74300
O56         O  0.24654400  0.23053543  0.44817419    -0.73100
Cu57       Cu  0.26961498  0.25794194  0.48053219     1.04600
Cu58       Cu  0.28227406  0.24468167  0.45725709     1.04300
C59         C  0.22958893  0.23248264  0.45583792     0.93200
C60         C  0.32240042  0.27009552  0.48176327     0.92300
C61         C  0.29237071  0.29662767  0.45493683     0.84500
C62         C  0.25954863  0.20613323  0.48302988     0.90700
O63         O  0.06706059  0.40969313  0.80256872    -0.73000
O64         O  0.13659997  0.43702235  0.82359489    -0.74000
O65         O  0.11552794  0.45845503  0.80296444    -0.62600
O66         O  0.08804148  0.38840762  0.82323766    -0.71000
O67         O  0.10091723  0.37686044  0.80158335    -0.70600
O68         O  0.12826647  0.44688508  0.78126014    -0.61800
O69         O  0.14927638  0.42548099  0.80184845    -0.74300
O70         O  0.07983005  0.39805984  0.78091009    -0.73100
Cu71       Cu  0.10135283  0.42382252  0.81384966     1.04600
Cu72       Cu  0.11502051  0.41141462  0.79064438     1.04300
C73         C  0.06260333  0.39980907  0.78838843     0.93200
C74         C  0.15375045  0.43517059  0.81607376     0.92300
C75         C  0.12598730  0.46362724  0.78889363     0.84500
C76         C  0.09043283  0.37171704  0.81564703     0.90700
N77         N  0.25189097  0.54805713  0.09388397    -0.27400
N78         N  0.26750196  0.55640712  0.10667551    -0.35200
C79         C  0.25871849  0.56600694  0.11760033     0.01000
C80         C  0.23645400  0.56351177  0.11142848     0.07000
C81         C  0.23259359  0.55204119  0.09638062    -0.06100
H82         H  0.26766554  0.57380698  0.12928985     0.07700
H83         H  0.21684385  0.54676242  0.08794893     0.08900
Cu84       Cu  0.29976398  0.55417654  0.10916881     0.44200
Cu85       Cu  0.25786968  0.53183676  0.07373774     0.42000
Cu86       Cu  0.31545225  0.52791876  0.07599708     0.43900
N87         N  0.33222451  0.55203746  0.10895283    -0.34700
N88         N  0.33823894  0.54251857  0.09666857    -0.29000
C89         C  0.36138929  0.54555700  0.09968158    -0.05100
C90         C  0.37020166  0.55750675  0.11460433     0.07100
C91         C  0.35123909  0.56128276  0.12016657     0.00900
H92         H  0.37137891  0.54017599  0.09142225     0.08600
H93         H  0.35164998  0.07088648  0.13125039     0.07600
N94         N  0.29148053  0.51769693  0.05585811    -0.36200
N95         N  0.27066264  0.51906485  0.05500066    -0.28400
C96         C  0.26070674  0.51263918  0.03992697    -0.03600
C97         C  0.27605402  0.50705652  0.03077805     0.05000
C98         C  0.29533641  0.51041702  0.04136801     0.03100
H99         H  0.24414370  0.51310788  0.03582582     0.08200
H100        H  0.31141735  0.50832568  0.03874415     0.07000
N101        N  0.29266421  0.44485805  0.84491247    -0.27400
N102        N  0.27882278  0.43968504  0.83146203    -0.35200
C103        C  0.28879159  0.43221624  0.81989338     0.01000
C104        C  0.31003839  0.43289912  0.82633217     0.07000
C105        C  0.31202668  0.44104454  0.84219735    -0.06100
H106        H  0.28135282  0.42708582  0.80763193     0.07700
H107        H  0.32642625  0.44395749  0.85110881     0.08900
Cu108      Cu  0.24734566  0.44337201  0.82912775     0.44200
Cu109      Cu  0.28405653  0.95614223  0.86639164     0.42000
Cu110      Cu  0.22732560  0.96093964  0.86498503     0.43900
N111        N  0.21558378  0.44677490  0.82982802    -0.34700
N112        N  0.20812654  0.45319220  0.84300153    -0.29000
C113        C  0.18556426  0.45136257  0.83990678    -0.05100
C114        C  0.17854904  0.44333861  0.82402870     0.07100
C115        C  0.19802609  0.44069807  0.81798057     0.00900
H116        H  0.17441045  0.45424474  0.84880807     0.08600
H117        H  0.19866697  0.43350735  0.80614811     0.07600
N118        N  0.24844317  0.96580324  0.88582265    -0.36200
N119        N  0.26917058  0.96427123  0.88639068    -0.28400
C120        C  0.27791944  0.96805360  0.90176757    -0.03600
C121        C  0.26187678  0.97211679  0.91138826     0.05000
C122        C  0.24340536  0.97052637  0.90078388     0.03100
H123        H  0.29449191  0.96742018  0.90562306     0.08200
H124        H  0.22746621  0.97274926  0.90361218     0.07000
N125        N  0.96385199  0.26558751  0.09336759    -0.27400
N126        N  0.95992415  0.25239015  0.10701667    -0.35200
C127        C  0.95323926  0.26268061  0.11881911     0.01000
C128        C  0.95322623  0.28351795  0.11232861     0.07000
C129        C  0.96005453  0.28489675  0.09619447    -0.06100
H130        H  0.44911575  0.25573417  0.13124938     0.07700
H131        H  0.96203450  0.29881848  0.08716548     0.08900
Cu132      Cu  0.96456012  0.22164705  0.10946176     0.44200
Cu133      Cu  0.97396390  0.25670651  0.07151124     0.42000
Cu134      Cu  0.98287703  0.20287269  0.07344907     0.43900
N135        N  0.96943672  0.19095463  0.10875456    -0.34700
N136        N  0.97602089  0.18382879  0.09551098    -0.29000
C137        C  0.97486014  0.16160219  0.09862005    -0.05100
C138        C  0.96711127  0.15450310  0.11458179     0.07100
C139        C  0.96394892  0.17357010  0.12065955     0.00900
H140        H  0.97782862  0.15061702  0.08966258     0.08600
H141        H  0.45658426  0.17390961  0.13251658     0.07600
N142        N  0.98722799  0.22366307  0.05247558    -0.36200
N143        N  0.98391790  0.24324110  0.05162149    -0.28400
C144        C  0.98786601  0.25205607  0.03620754    -0.03600
C145        C  0.99395230  0.23726011  0.02686096     0.05000
C146        C  0.99335504  0.21947620  0.03770067     0.03100
H147        H  0.98612733  0.26789759  0.03217190     0.08200
H148        H  0.99711215  0.20450047  0.03518559     0.07000
N149        N  0.07581613  0.23046069  0.84407391    -0.27400
N150        N  0.08308245  0.24554522  0.83099352    -0.35200
C151        C  0.09237692  0.23675244  0.81986214     0.01000
C152        C  0.09080026  0.21501762  0.82619910     0.07000
C153        C  0.08019438  0.21147092  0.84154688    -0.06100
H154        H  0.09941902  0.24538009  0.80796311     0.07700
H155        H  0.07587201  0.19619650  0.85019931     0.08900
Cu156      Cu  0.08002861  0.27717551  0.82837150     0.44200
Cu157      Cu  0.06053117  0.23656990  0.86472352     0.42000
Cu158      Cu  0.05501263  0.29261166  0.86243369     0.43900
N159        N  0.07703879  0.30898068  0.82885442    -0.34700
N160        N  0.06806742  0.31496991  0.84146216    -0.29000
C161        C  0.07061692  0.33790838  0.83851852    -0.05100
C162        C  0.08167827  0.34657300  0.82330756     0.07100
C163        C  0.08544538  0.32777939  0.81750394     0.00900
H164        H  0.06569048  0.34794006  0.84704300     0.08600
H165        H  0.09464640  0.32824841  0.80619383     0.07600
N166        N  0.04538453  0.26902877  0.88276132    -0.36200
N167        N  0.04748065  0.24868570  0.88372926    -0.28400
C168        C  0.04099194  0.23862328  0.89883385    -0.03600
C169        C  0.03450886  0.25339092  0.90787885     0.05000
C170        C  0.03750392  0.27245968  0.89716148     0.03100
H171        H  0.04169478  0.22219497  0.90294126     0.08200
H172        H  0.03471142  0.28811274  0.89959405     0.07000
O173        O  0.46095807  0.11270535  0.11484090    -0.73000
O174        O  0.43314320  0.04267770  0.13529812    -0.74000
O175        O  0.41224933  0.06418368  0.11480958    -0.62600
O176        O  0.48189334  0.09110600  0.13542315    -0.71000
O177        O  0.46955002  0.10277806  0.15726656    -0.70600
O178        O  0.40020406  0.07667704  0.13640249    -0.61800
O179        O  0.42044280  0.05444949  0.15692430    -0.74300
O180        O  0.44910820  0.12484297  0.13670004    -0.73100
Cu181      Cu  0.44753391  0.07726918  0.12434264     1.04600
Cu182      Cu  0.43442903  0.09014177  0.14759309     1.04300
C183        C  0.45900805  0.12965087  0.12247487     0.93200
C184        C  0.42242143  0.03751856  0.14928610     0.92300
C185        C  0.39534435  0.06641197  0.12232499     0.84500
C186        C  0.48654978  0.10081206  0.14965590     0.90700
N187        N  0.16955314  0.44944881  0.43055525    -0.27400
N188        N  0.15980954  0.43539907  0.44398338    -0.35200
C189        C  0.17868960  0.44431208  0.45523335     0.01000
C190        C  0.20146608  0.96498131  0.44858404     0.07000
C191        C  0.19503918  0.96791141  0.43295350    -0.06100
H192        H  0.17636001  0.43532281  0.46700766     0.07700
H193        H  0.20824703  0.98123842  0.42368658     0.08900
Cu194      Cu  0.12317126  0.40174741  0.44569463     0.44200
Cu195      Cu  0.14868896  0.43962203  0.40901838     0.42000
Cu196      Cu  0.08570630  0.37631824  0.40928723     0.43900
N197        N  0.09032610  0.36459230  0.44401042    -0.34700
N198        N  0.07632553  0.35492721  0.43063082    -0.29000
C199        C  0.05838296  0.32925880  0.43291122    -0.05100
C200        C  0.06162921  0.32262208  0.44841219     0.07100
C201        C  0.08191314  0.34546609  0.45512442     0.00900
H202        H  0.54513051  0.31614956  0.42366168     0.08600
H203        H  0.09088713  0.34776276  0.46686995     0.07600
N204        N  0.10247498  0.39976893  0.38892625    -0.36200
N205        N  0.12522000  0.42253964  0.38876733    -0.28400
C206        C  0.13107472  0.43145477  0.37340673    -0.03600
C207        C  0.11108476  0.41340091  0.36332553     0.05000
C208        C  0.09326859  0.39361770  0.37369867     0.03100
H209        H  0.14905643  0.44940621  0.36989834     0.08200
H210        H  0.07515825  0.37564402  0.37051509     0.07000
N211        N  0.04136543  0.38489244  0.17541489    -0.27400
N212        N  0.05132370  0.39838946  0.16182318    -0.35200
C213        C  0.03247064  0.38948723  0.15056320     0.01000
C214        C  0.50954837  0.36933916  0.15738733     0.07000
C215        C  0.51578913  0.36676335  0.17312314    -0.06100
H216        H  0.03506426  0.39784253  0.13855023     0.07700
H217        H  0.50251357  0.35366001  0.18244284     0.08900
Cu218      Cu  0.08872451  0.43059268  0.15963577     0.44200
Cu219      Cu  0.06230656  0.39433376  0.19683737     0.42000
Cu220      Cu  0.12693416  0.45517967  0.19592627     0.43900
N221        N  0.12294566  0.46663085  0.16106675    -0.34700
N222        N  0.13713254  0.47608155  0.17439565    -0.29000
C223        C  0.15580102  0.00150547  0.17197260    -0.05100
C224        C  0.15280565  0.00817022  0.15643292     0.07100
C225        C  0.13197247  0.48562351  0.14983880     0.00900
H226        H  0.16922085  0.01452482  0.18119181     0.08600
H227        H  0.12286667  0.48357474  0.13817268     0.07600
N228        N  0.10986179  0.43249090  0.21649376    -0.36200
N229        N  0.08643480  0.41050308  0.21685552    -0.28400
C230        C  0.08059000  0.40176381  0.23224049    -0.03600
C231        C  0.10132057  0.41913027  0.24212761     0.05000
C232        C  0.11955066  0.43832923  0.23162786     0.03100
H233        H  0.06214103  0.38447887  0.23591106     0.08200
H234        H  0.13830829  0.45566103  0.23467283     0.07000
N235        N  0.08840252  0.21793360  0.42733976    -0.27400
N236        N  0.10369874  0.22568265  0.44026016    -0.35200
C237        C  0.09487547  0.23510546  0.45129008     0.01000
C238        C  0.07288987  0.23311397  0.44503327     0.07000
C239        C  0.06925173  0.22212339  0.42983878    -0.06100
H240        H  0.10355176  0.24237224  0.46310731     0.07700
H241        H  0.05371377  0.21725440  0.42132268     0.08900
Cu242      Cu  0.13534396  0.22249844  0.44263266     0.44200
Cu243      Cu  0.09456040  0.20196179  0.40713478     0.42000
Cu244      Cu  0.15029710  0.19548059  0.40908703     0.43900
N245        N  0.16684075  0.21885872  0.44238284    -0.34700
N246        N  0.17268698  0.20924326  0.43005947    -0.29000
C247        C  0.19555297  0.21170311  0.43319370    -0.05100
C248        C  0.20430385  0.22333488  0.44822297     0.07100
C249        C  0.18561807  0.22753389  0.45371377     0.00900
H250        H  0.20552726  0.20636515  0.42489005     0.08600
H251        H  0.18620633  0.23730296  0.46476215     0.07600
N252        N  0.12628549  0.18587095  0.38892949    -0.36200
N253        N  0.10610300  0.18828209  0.38822079    -0.28400
C254        C  0.09587422  0.18216623  0.37320147    -0.03600
C255        C  0.11035414  0.17565317  0.36388310     0.05000
C256        C  0.12942736  0.17815902  0.37437176     0.03100
H257        H  0.07949042  0.18311032  0.36934370     0.08200
H258        H  0.14519256  0.17567623  0.37154299     0.07000
N259        N  0.12571087  0.11104226  0.17817339    -0.27400
N260        N  0.11156639  0.10555460  0.16483236    -0.35200
C261        C  0.12083629  0.09720567  0.15336868     0.01000
C262        C  0.14193311  0.09759454  0.15975463     0.07000
C263        C  0.14459045  0.10651993  0.17548071    -0.06100
H264        H  0.11297718  0.09160760  0.14122095     0.07700
H265        H  0.15910488  0.10946685  0.18431290     0.08900
Cu266      Cu  0.08046014  0.10967006  0.16246207     0.44200
Cu267      Cu  0.11811930  0.12369780  0.19947422     0.42000
Cu268      Cu  0.06201742  0.12932072  0.19786339     0.43900
N269        N  0.04869363  0.11290928  0.16313310    -0.34700
N270        N  0.04168532  0.12000773  0.17619706    -0.29000
C271        C  0.01896724  0.11791025  0.17320424    -0.05100
C272        C  0.01143090  0.10902648  0.15750212     0.07100
C273        C  0.03073321  0.10613686  0.15145453     0.00900
H274        H  0.00815634  0.12137138  0.18204443     0.08600
H275        H  0.03105552  0.09842363  0.13974385     0.07600
N276        N  0.08384039  0.13549338  0.21859754    -0.36200
N277        N  0.10425628  0.13346319  0.21927243    -0.28400
C278        C  0.11321021  0.13767964  0.23461775    -0.03600
C279        C  0.09765260  0.14259925  0.24412082     0.05000
C280        C  0.07925661  0.14105242  0.23344676     0.03100
H281        H  0.12971639  0.13695904  0.23849919     0.08200
H282        H  0.06321661  0.14313044  0.23623304     0.07000
O283        O  0.15740990  0.03726603  0.13574800    -0.73000
O284        O  0.19269403  0.10747560  0.11455378    -0.74000
O285        O  0.19831527  0.06458478  0.11315199    -0.62600
O286        O  0.15175422  0.08035458  0.13730319    -0.71000
O287        O  0.17988212  0.09630534  0.15785555    -0.70600
O288        O  0.22664002  0.08113762  0.13358893    -0.61800
O289        O  0.22071142  0.12397716  0.13516117    -0.74300
O290        O  0.18569714  0.05353094  0.15622358    -0.73100
Cu291      Cu  0.17399903  0.07181161  0.12449220     1.04600
Cu292      Cu  0.20426857  0.08935690  0.14640836     1.04300
C293        C  0.16602546  0.03422121  0.14914066     0.93200
C294        C  0.21226506  0.12685798  0.12163855     0.92300
C295        C  0.21974353  0.07019161  0.11970845     0.84500
C296        C  0.15857003  0.09098618  0.15128575     0.90700
O297        O  0.02913288  0.27716439  0.44841387    -0.73000
O298        O  0.49342456  0.20625556  0.46894288    -0.74000
O299        O  0.48778628  0.24930692  0.47076325    -0.62600
O300        O  0.03481642  0.23426028  0.44668266    -0.71000
O301        O  0.06276872  0.25031558  0.46732223    -0.70600
O302        O  0.01560558  0.26516127  0.49147613    -0.61800
O303        O  0.02124738  0.22222154  0.48965423    -0.74300
O304        O  0.05693044  0.29331705  0.46913247    -0.73100
Cu305      Cu  0.51028233  0.24115908  0.45799955     1.04600
Cu306      Cu  0.04017266  0.25834541  0.48010949     1.04300
C307        C  0.04856693  0.29647702  0.45565630     0.93200
C308        C  0.50170429  0.20299279  0.48240781     0.92300
C309        C  0.99438966  0.25986537  0.48476567     0.84500
C310        C  0.05611043  0.23968310  0.45334118     0.90700
N311        N  0.96213312  0.28191525  0.51056189    -0.27400
N312        N  0.44756781  0.27518041  0.49732044    -0.35200
C313        C  0.95641734  0.26566642  0.48637728     0.01000
C314        C  0.97766611  0.26658750  0.49298106     0.07000
C315        C  0.98084576  0.27701258  0.50831256    -0.06100
H316        H  0.44834248  0.25917599  0.47434663     0.07700
H317        H  0.99583632  0.28109089  0.51708248     0.08900
Cu318      Cu  0.41683333  0.27972559  0.49410213     0.44200
Cu319      Cu  0.45611971  0.29779305  0.53093229     0.42000
Cu320      Cu  0.40211572  0.30631646  0.52788454     0.43900
N321        N  0.38547407  0.28370096  0.49448202    -0.34700
N322        N  0.37979464  0.29316571  0.50696878    -0.29000
C323        C  0.35688486  0.29074424  0.50412809    -0.05100
C324        C  0.34785520  0.27925440  0.48911582     0.07100
C325        C  0.36646899  0.27512989  0.48331108     0.00900
H326        H  0.34703424  0.29591696  0.51265118     0.08600
H327        H  0.36561870  0.26538874  0.47219039     0.07600
N328        N  0.42524634  0.31550763  0.54833997    -0.36200
N329        N  0.44502968  0.31252642  0.54952392    -0.28400
C330        C  0.45509328  0.31917622  0.56458294    -0.03600
C331        C  0.44082410  0.32654017  0.57335946     0.05000
C332        C  0.42209163  0.32398130  0.56259092     0.03100
H333        H  0.97097427  0.31774781  0.56895985     0.08200
H334        H  0.40694329  0.32758753  0.56493544     0.07000
N335        N  0.42552605  0.39220146  0.75867373    -0.27400
N336        N  0.43910210  0.39697566  0.77219251    -0.35200
C337        C  0.42924796  0.40456101  0.78375770     0.01000
C338        C  0.40829650  0.40434612  0.77725389     0.07000
C339        C  0.40639542  0.39638091  0.76133855    -0.06100
H340        H  0.43646288  0.40930234  0.79608335     0.07700
H341        H  0.39213083  0.39370840  0.75239153     0.08900
Cu342      Cu  0.46976765  0.39216695  0.77458728     0.44200
Cu343      Cu  0.43416561  0.38050753  0.73735501     0.42000
Cu344      Cu  0.48907670  0.37258174  0.73918278     0.43900
N345        N  0.50085678  0.38781708  0.77425570    -0.34700
N346        N  0.50814363  0.38073786  0.76130322    -0.29000
C347        C  0.03063294  0.38253462  0.76462214    -0.05100
C348        C  0.03774165  0.39124128  0.78039469     0.07100
C349        C  0.51839168  0.39425830  0.78616374     0.00900
H350        H  0.04174548  0.37927738  0.75590461     0.08600
H351        H  0.51790782  0.40210291  0.79778763     0.07600
N352        N  0.46833893  0.36841099  0.71821120    -0.36200
N353        N  0.44831353  0.37108986  0.71753351    -0.28400
C354        C  0.43981308  0.36776290  0.70211106    -0.03600
C355        C  0.45531619  0.36288838  0.69255914     0.05000
C356        C  0.47317898  0.36344020  0.70324873     0.03100
H357        H  0.42389372  0.36942503  0.69814058     0.08200
H358        H  0.48863029  0.36046361  0.70043688     0.07000
O359        O  0.32833951  0.37498457  0.80176068    -0.73000
O360        O  0.36214173  0.44576570  0.78133045    -0.74000
O361        O  0.36942638  0.40404453  0.77927548    -0.62600
O362        O  0.32101213  0.41695023  0.80372750    -0.71000
O363        O  0.34890239  0.43314815  0.82439144    -0.70600
O364        O  0.39733974  0.42021368  0.79992808    -0.61800
O365        O  0.39000379  0.46212979  0.80202097    -0.74300
O366        O  0.35626024  0.39145181  0.82241392    -0.73100
Cu367      Cu  0.34420189  0.40980748  0.79081680     1.04600
Cu368      Cu  0.37415530  0.42735535  0.81288940     1.04300
C369        C  0.33689563  0.37202803  0.81521884     0.93200
C370        C  0.38145421  0.46515341  0.78859345     0.92300
C371        C  0.39093940  0.40992869  0.78583813     0.84500
C372        C  0.32740914  0.42728606  0.81779789     0.90700
N373        N  0.37895211  0.05125362  0.50749548    -0.27400
N374        N  0.38891638  0.06484362  0.49392603    -0.35200
C375        C  0.36998903  0.05608930  0.48270811     0.01000
C376        C  0.34699042  0.53600566  0.48952911     0.07000
C377        C  0.35331468  0.53325510  0.50521838    -0.06100
H378        H  0.37249862  0.06476213  0.47080502     0.07700
H379        H  0.33998987  0.52034557  0.51458427     0.08900
Cu380      Cu  0.42609177  0.09779175  0.49192588     0.44200
Cu381      Cu  0.39973769  0.06084151  0.52905141     0.42000
Cu382      Cu  0.46283263  0.12317558  0.52877575     0.43900
N383        N  0.45916176  0.13486207  0.49386136    -0.34700
N384        N  0.97273518  0.14444940  0.50739959    -0.29000
C385        C  0.99091149  0.17007726  0.50522197    -0.05100
C386        C  0.98831022  0.17680802  0.48961470     0.07100
C387        C  0.96811977  0.15404820  0.48273778     0.00900
H388        H  0.00388614  0.18310299  0.51459745     0.08600
H389        H  0.45957330  0.15187084  0.47085774     0.07600
N390        N  0.44639821  0.09969995  0.54911539    -0.36200
N391        N  0.42351298  0.07709452  0.54926341    -0.28400
C392        C  0.41789751  0.06782753  0.56455620    -0.03600
C393        C  0.43821196  0.08551452  0.57460028     0.05000
C394        C  0.45594866  0.10544388  0.56428516     0.03100
H395        H  0.39999356  0.04982608  0.56803163     0.08200
H396        H  0.97405673  0.12337254  0.56752515     0.07000
N397        N  0.41020005  0.52329175  0.76341983    -0.27400
N398        N  0.42416776  0.03280715  0.77682817    -0.35200
C399        C  0.41507048  0.51382669  0.78806437     0.01000
C400        C  0.39443403  0.49123245  0.78139704     0.07000
C401        C  0.39163375  0.49783601  0.76580008    -0.06100
H402        H  0.42404382  0.51591995  0.79978533     0.07700
H403        H  0.37845259  0.48475511  0.75651498     0.08900
Cu404      Cu  0.45820940  0.06891368  0.77855154     0.44200
Cu405      Cu  0.42039291  0.04401292  0.74183575     0.42000
Cu406      Cu  0.98468438  0.10503034  0.74165522     0.43900
N407        N  0.99539073  0.10150504  0.77674802    -0.34700
N408        N  0.00541064  0.11504480  0.76318476    -0.29000
C409        C  0.03092117  0.13331868  0.76556871    -0.05100
C410        C  0.03706666  0.13074981  0.78133579     0.07100
C411        C  0.01413031  0.11050547  0.78809265     0.00900
H412        H  0.04426227  0.14639839  0.75626654     0.08600
H413        H  0.01150150  0.10205888  0.80007997     0.07600
N414        N  0.46142808  0.08884971  0.72128370    -0.36200
N415        N  0.43808173  0.06677114  0.72140245    -0.28400
C416        C  0.42884018  0.06104803  0.70617233    -0.03600
C417        C  0.44725095  0.08046655  0.69584879     0.05000
C418        C  0.46767233  0.09779377  0.70594847     0.03100
H419        H  0.41034844  0.04355599  0.70294662     0.08200
H420        H  0.98597863  0.11540143  0.70250882     0.07000
O421        O  0.45308316  0.32204085  0.11411187    -0.73000
O422        O  0.43750038  0.36900583  0.13753170    -0.74000
O423        O  0.48073484  0.36364891  0.13623184    -0.62600
O424        O  0.41036609  0.32754830  0.11551396    -0.71000
O425        O  0.39399095  0.29962340  0.13630293    -0.70600
O426        O  0.46438071  0.33603697  0.15716582    -0.61800
O427        O  0.42115521  0.34110342  0.15831723    -0.74300
O428        O  0.43725530  0.29433011  0.13500291    -0.73100
Cu429      Cu  0.44605796  0.34658610  0.12514469     1.04600
Cu430      Cu  0.42862211  0.31675749  0.14742750     1.04300
C431        C  0.44757038  0.30075459  0.12087674     0.93200
C432        C  0.42651176  0.36227762  0.15145439     0.92300
C433        C  0.48367917  0.35562387  0.14990948     0.84500
C434        C  0.39107485  0.30790854  0.12272022     0.90700
N435        N  0.30075678  0.43477798  0.42571612    -0.27400
N436        N  0.29603825  0.42119852  0.43928028    -0.35200
C437        C  0.28868072  0.43118202  0.45088017     0.01000
C438        C  0.28898189  0.95218249  0.44434521     0.07000
C439        C  0.29678797  0.95402887  0.42838078    -0.06100
H440        H  0.28388795  0.42392232  0.46323101     0.07700
H441        H  0.29935796  0.96823140  0.41937813     0.08900
Cu442      Cu  0.30019779  0.39007247  0.44171454     0.44200
Cu443      Cu  0.31181336  0.42591382  0.40429435     0.42000
Cu444      Cu  0.32100908  0.37190341  0.40646393     0.43900
N445        N  0.30386833  0.35850616  0.44118426    -0.34700
N446        N  0.31150789  0.35176394  0.42824439    -0.29000
C447        C  0.30959870  0.32916389  0.43134214    -0.05100
C448        C  0.30031369  0.32141207  0.44698728     0.07100
C449        C  0.29696041  0.34046371  0.45289779     0.00900
H450        H  0.31349392  0.31858506  0.42260225     0.08600
H451        H  0.28889775  0.34057570  0.46454528     0.07600
N452        N  0.32472234  0.39229179  0.38543981    -0.36200
N453        N  0.32126226  0.41178300  0.38459773    -0.28400
C454        C  0.32389350  0.41978438  0.36908272    -0.03600
C455        C  0.32918388  0.40452276  0.35965267     0.05000
C456        C  0.32959255  0.38732877  0.37050227     0.03100
H457        H  0.32143473  0.43514864  0.36500062     0.08200
H458        H  0.33297690  0.37213367  0.36782755     0.07000
N459        N  0.40452472  0.39452911  0.17715282    -0.27400
N460        N  0.41150214  0.40929938  0.16394475    -0.35200
C461        C  0.42079330  0.40033853  0.15291409     0.01000
C462        C  0.41949680  0.37884485  0.15948526     0.07000
C463        C  0.40903767  0.37559833  0.17483483    -0.06100
H464        H  0.42766211  0.40868516  0.14093696     0.07700
H465        H  0.40489947  0.36056568  0.18363421     0.08900
Cu466      Cu  0.40824151  0.44090050  0.16125530     0.44200
Cu467      Cu  0.38929066  0.40085207  0.19764239     0.42000
Cu468      Cu  0.38257419  0.45634020  0.19498253     0.43900
N469        N  0.40628039  0.47342863  0.16186197    -0.34700
N470        N  0.39710443  0.47941002  0.17436605    -0.29000
C471        C  0.40069969  0.50288174  0.17165931    -0.05100
C472        C  0.41270099  0.51195660  0.15671563     0.07100
C473        C  0.41586511  0.49279474  0.15081132     0.00900
H474        H  0.39581051  0.51295313  0.18017662     0.08600
H475        H  0.42544598  0.49336561  0.13964854     0.07600
N476        N  0.37209980  0.43210397  0.21502676    -0.36200
N477        N  0.37470862  0.41208605  0.21613459    -0.28400
C478        C  0.36776698  0.40175763  0.23114624    -0.03600
C479        C  0.36052502  0.41605670  0.23996766     0.05000
C480        C  0.36345305  0.43507083  0.22925768     0.03100
H481        H  0.36902046  0.38573160  0.23544278     0.08200
H482        H  0.36025173  0.45046883  0.23163709     0.07000
O483        O  0.23054739  0.46946715  0.46928747    -0.73000
O484        O  0.30146868  0.00356801  0.48951729    -0.74000
O485        O  0.25935355  0.01024419  0.49180280    -0.62600
O486        O  0.27291658  0.46276099  0.46703502    -0.71000
O487        O  0.28901845  0.99088576  0.44636464    -0.70600
O488        O  0.27561830  0.03849216  0.47119884    -0.61800
O489        O  0.31792297  0.03169239  0.46885213    -0.74300
O490        O  0.24694032  0.99768370  0.44866840    -0.73100
Cu491      Cu  0.26545189  0.48547150  0.48010774     1.04600
Cu492      Cu  0.28298358  0.01573350  0.45806826     1.04300
C493        C  0.22752919  0.47811583  0.45587170     0.93200
C494        C  0.32091394  0.02305072  0.48227902     0.92300
C495        C  0.26526296  0.03184047  0.48530865     0.84500
C496        C  0.28325691  0.46937183  0.45292412     0.90700
N497        N  0.24759760  0.06617478  0.51262548    -0.27400
N498        N  0.25340524  0.08047905  0.49928468    -0.35200
C499        C  0.26098663  0.07070034  0.48769205     0.01000
C500        C  0.25973658  0.04908849  0.49399300     0.07000
C501        C  0.25115640  0.04668244  0.50982275    -0.06100
H502        H  0.26656699  0.07852415  0.47549744     0.07700
H503        H  0.24769112  0.03187823  0.51861981     0.08900
Cu504      Cu  0.25040736  0.11228265  0.49706065     0.44200
Cu505      Cu  0.23549206  0.07434553  0.53389815     0.42000
Cu506      Cu  0.23143875  0.13182161  0.53218356     0.43900
N507        N  0.24788629  0.14447698  0.49738241    -0.34700
N508        N  0.24091791  0.15182129  0.51034579    -0.29000
C509        C  0.24300060  0.17444748  0.50704284    -0.05100
C510        C  0.25173500  0.18157494  0.49123546     0.07100
C511        C  0.25459485  0.16215068  0.48545642     0.00900
H512        H  0.23949515  0.18540871  0.51570954     0.08600
H513        H  0.26205823  0.16145380  0.47371456     0.07600
N514        N  0.22487625  0.10963369  0.55281912    -0.36200
N515        N  0.22627865  0.08884263  0.55353715    -0.28400
C516        C  0.22181133  0.07982410  0.56889923    -0.03600
C517        C  0.21738654  0.09573540  0.57834125     0.05000
C518        C  0.21950258  0.11440599  0.56764986     0.03100
H519        H  0.22203900  0.06304604  0.57282512     0.08200
H520        H  0.21795382  0.13076514  0.57039561     0.07000
N521        N  0.14358246  0.10695726  0.76168817    -0.27400
N522        N  0.13601422  0.09170349  0.77469587    -0.35200
C523        C  0.12630444  0.10032069  0.78567628     0.01000
C524        C  0.12791976  0.12208221  0.77927975     0.07000
C525        C  0.13899506  0.12582700  0.76407773    -0.06100
H526        H  0.11889429  0.09153526  0.79749884     0.07700
H527        H  0.14349174  0.14115323  0.75542469     0.08900
Cu528      Cu  0.13894753  0.05982709  0.77708895     0.44200
Cu529      Cu  0.15943271  0.10114660  0.74129472     0.42000
Cu530      Cu  0.16174825  0.04298549  0.74223062     0.43900
N531        N  0.14060768  0.02710714  0.77608197    -0.34700
N532        N  0.14864840  0.02063993  0.76321034    -0.29000
C533        C  0.14548061  0.99736890  0.76595823    -0.05100
C534        C  0.13493003  0.98890352  0.78129761     0.07100
C535        C  0.13214379  0.00821260  0.78739121     0.00900
H536        H  0.14971209  0.98702566  0.75723827     0.08600
H537        H  0.12364669  0.00809323  0.79891833     0.07600
N538        N  0.17349624  0.06835407  0.72266456    -0.36200
N539        N  0.17272208  0.08951589  0.72225095    -0.28400
C540        C  0.18022999  0.10060425  0.70745249    -0.03600
C541        C  0.18597145  0.08564085  0.69804222     0.05000
C542        C  0.18152563  0.06540677  0.70818888     0.03100
H543        H  0.18071785  0.11787358  0.70377999     0.08200
H544        H  0.18281235  0.04897610  0.70515544     0.07000
O545        O  0.06589041  0.13623870  0.80246008    -0.73000
O546        O  0.13631985  0.17295264  0.82349687    -0.74000
O547        O  0.09271430  0.17747211  0.82473488    -0.62600
O548        O  0.10958650  0.13151752  0.80125632    -0.71000
O549        O  0.12579644  0.15958466  0.78055536    -0.70600
O550        O  0.10865823  0.20547382  0.80399192    -0.61800
O551        O  0.15242058  0.20094393  0.80274767    -0.74300
O552        O  0.08219484  0.16413192  0.78166477    -0.73100
Cu553      Cu  0.10052126  0.15352126  0.81369648     1.04600
Cu554      Cu  0.11785575  0.18356186  0.79152657     1.04300
C555        C  0.06292328  0.14441246  0.78884142     0.93200
C556        C  0.15553056  0.19271798  0.81629513     0.92300
C557        C  0.09782795  0.19861081  0.81796491     0.84500
C558        C  0.12062639  0.13842563  0.78735236     0.90700
C559        C  0.21321044  0.05957282  0.64944350    -0.17900
C560        C  0.21691783  0.06040830  0.63266131    -0.20100
C561        C  0.21279051  0.07660655  0.62277898     0.20600
C562        C  0.20487894  0.09213215  0.62987241    -0.03000
C563        C  0.20115319  0.09130117  0.64679967    -0.06000
C564        C  0.20528904  0.07489885  0.65660588     0.20900
C565        C  0.19313287  0.10674461  0.65388196     0.19000
C566        C  0.18899108  0.12293104  0.64399951    -0.17500
C567        C  0.19268948  0.12375955  0.62721958    -0.19800
C568        C  0.20062257  0.10844140  0.62006083     0.20500
C569        C  0.20442714  0.10922736  0.60326663    -0.32800
C570        C  0.21259301  0.09403911  0.59607535     0.01200
C571        C  0.21657670  0.07764601  0.60595009    -0.24100
C572        C  0.20108882  0.07381294  0.67337226    -0.28700
C573        C  0.19250092  0.08867533  0.68051324     0.06900
C574        C  0.18896024  0.10540902  0.67067605    -0.27300
H575        H  0.21643358  0.04684532  0.65681826     0.11600
H576        H  0.22300198  0.04836681  0.62740871     0.12700
H577        H  0.18278218  0.13488009  0.64924307     0.09100
H578        H  0.18933623  0.13638507  0.61983532     0.11100
H579        H  0.20092483  0.12169146  0.59585789     0.16400
H580        H  0.22298025  0.06592617  0.60064897     0.12400
H581        H  0.20430421  0.06114130  0.68078800     0.15200
H582        H  0.18226535  0.11690580  0.67594184     0.15000
C583        C  0.33709153  0.36656708  0.29167708    -0.17900
C584        C  0.33304454  0.36511441  0.30844871    -0.20100
C585        C  0.33468034  0.38595303  0.31670933     0.20600
C586        C  0.34014155  0.40834386  0.30798192    -0.03000
C587        C  0.34419147  0.40979317  0.29106757    -0.06000
C588        C  0.34282828  0.38887640  0.28290286     0.20900
C589        C  0.34989717  0.43229133  0.28237433     0.19000
C590        C  0.35127726  0.45302318  0.29060321    -0.17500
C591        C  0.34726366  0.45158679  0.30736945    -0.19800
C592        C  0.34178890  0.42938834  0.31616340     0.20500
C593        C  0.33811914  0.42796800  0.33300607    -0.32800
C594        C  0.33284089  0.40578995  0.34182943     0.01200
C595        C  0.33106197  0.38482074  0.33354933    -0.24100
C596        C  0.34758038  0.39077684  0.26615605    -0.28700
C597        C  0.35380714  0.41337762  0.25744626     0.06900
C598        C  0.35456965  0.43389276  0.26565165    -0.27300
H599        H  0.33592534  0.35031328  0.28558680     0.11600
H600        H  0.32879760  0.34775532  0.31497569     0.12700
H601        H  0.35563916  0.97043375  0.28408720     0.11800
H602        H  0.34856845  0.96789894  0.31347094     0.11100
H603        H  0.33975103  0.44433478  0.33921798     0.16400
H604        H  0.32668660  0.36748072  0.34013259     0.12400
H605        H  0.34658768  0.37469499  0.25997996     0.15200
H606        H  0.35948047  0.45149574  0.25918678     0.15000
C607        C  0.98724666  0.12096753  0.62594578    -0.17900
C608        C  0.98841060  0.12051300  0.64288812    -0.20100
C609        C  0.46661580  0.10153092  0.65189755     0.20600
C610        C  0.44342021  0.08287192  0.64376734    -0.03000
C611        C  0.44224467  0.08333291  0.62668190    -0.06000
C612        C  0.46426446  0.10246328  0.61774396     0.20900
C613        C  0.41904558  0.06465509  0.61856332     0.19000
C614        C  0.39723936  0.04569917  0.62756859    -0.17500
C615        C  0.39840981  0.04523392  0.64450030    -0.19800
C616        C  0.42140349  0.06371473  0.65269152     0.20500
C617        C  0.42274118  0.06326236  0.66964825    -0.32800
C618        C  0.44586096  0.08162851  0.67789761     0.01200
C619        C  0.46768654  0.10080372  0.66887913    -0.24100
C620        C  0.46291913  0.10283109  0.60076906    -0.28700
C621        C  0.43977736  0.08441351  0.59254554     0.06900
C622        C  0.41796746  0.06530565  0.60159066    -0.27300
H623        H  0.00433343  0.13581187  0.61925426     0.11600
H624        H  0.00637815  0.13498730  0.64894305     0.12700
H625        H  0.37926848  0.53122726  0.62151680     0.11800
H626        H  0.38132684  0.53038555  0.65119001     0.11100
H627        H  0.40567499  0.04852318  0.67632030     0.16400
H628        H  0.48565141  0.11505466  0.67495799     0.12400
H629        H  0.47997294  0.11751771  0.59404929     0.15200
H630        H  0.39997102  0.05106518  0.59553562     0.15000
C631        C  0.49274222  0.35568896  0.62405393    -0.17900
C632        C  0.49468399  0.36057476  0.64073116    -0.20100
C633        C  0.47334000  0.35739504  0.64935620     0.20600
C634        C  0.44992198  0.34954735  0.64106383    -0.03000
C635        C  0.44796784  0.34463012  0.62423173    -0.06000
C636        C  0.46942474  0.34753926  0.61571777     0.20900
C637        C  0.42446436  0.33654616  0.61597374     0.19000
C638        C  0.40320710  0.33361853  0.62456433    -0.17500
C639        C  0.40514694  0.33849703  0.64123779    -0.19800
C640        C  0.42837567  0.34638798  0.64960270     0.20500
C641        C  0.43034442  0.35096150  0.66636766    -0.32800
C642        C  0.45352725  0.35851939  0.67477774     0.01200
C643        C  0.47497455  0.36178811  0.66613290    -0.24100
C644        C  0.46709690  0.34196957  0.59907106    -0.28700
C645        C  0.44360559  0.33355811  0.59078311     0.06900
C646        C  0.42248000  0.33118241  0.59932273    -0.27300
H647        H  0.00943222  0.35810145  0.61769537     0.11600
H648        H  0.01283900  0.36667931  0.64690692     0.12700
H649        H  0.38501716  0.32741414  0.61840162     0.11800
H650        H  0.38841881  0.33597911  0.64760837     0.11100
H651        H  0.41361817  0.34818167  0.67287961     0.16400
H652        H  0.49305942  0.36792898  0.67239798     0.12400
H653        H  0.98360295  0.34417625  0.59259597     0.15200
H654        H  0.40420323  0.32451943  0.59315113     0.15000
C655        C  0.13339425  0.14289300  0.29823825    -0.17900
C656        C  0.13488264  0.14716120  0.31497670    -0.20100
C657        C  0.12032445  0.15593670  0.32223574     0.20600
C658        C  0.10403695  0.16036620  0.31254387    -0.03000
C659        C  0.10253699  0.15606178  0.29564820    -0.06000
C660        C  0.11731523  0.14731940  0.28847114     0.20900
C661        C  0.08630883  0.16056643  0.28595320     0.19000
C662        C  0.07172657  0.16931578  0.29321097    -0.17500
C663        C  0.07322447  0.17359419  0.30994657    -0.19800
C664        C  0.08933031  0.16919604  0.31970880     0.20500
C665        C  0.09115122  0.17371775  0.33647388    -0.32800
C666        C  0.10758085  0.16964704  0.34624911     0.01200
C667        C  0.12193200  0.16052612  0.33898873    -0.24100
C668        C  0.11573967  0.14310072  0.27167212    -0.28700
C669        C  0.09954689  0.14746804  0.26188028     0.06900
C670        C  0.08493831  0.15627181  0.26917693    -0.27300
H671        H  0.14485932  0.13615686  0.29292602     0.11600
H672        H  0.14749645  0.14366500  0.32224469     0.12700
H673        H  0.05916664  0.17287626  0.28593757     0.11800
H674        H  0.06181759  0.18040391  0.31525148     0.11100
H675        H  0.08006105  0.18085260  0.34177489     0.16400
H676        H  0.13445633  0.15701059  0.34630753     0.12400
H677        H  0.12696970  0.13615491  0.26632351     0.15200
H678        H  0.07256955  0.15998884  0.26185393     0.15000
C679        C  0.06650138  0.37254992  0.29446044    -0.17900
C680        C  0.06785785  0.37177104  0.31137265    -0.20100
C681        C  0.08805323  0.39331347  0.31985274     0.20600
C682        C  0.10708432  0.41583662  0.31122743    -0.03000
C683        C  0.10571827  0.41661948  0.29416240    -0.06000
C684        C  0.08532607  0.39486950  0.28575606     0.20900
C685        C  0.12473393  0.43914988  0.28553191     0.19000
C686        C  0.14493095  0.46069080  0.29401350    -0.17500
C687        C  0.14628805  0.45990576  0.31093064    -0.19800
C688        C  0.12745956  0.43758786  0.31964153     0.20500
C689        C  0.12862448  0.43668432  0.33660825    -0.32800
C690        C  0.10970110  0.41430444  0.34534978     0.01200
C691        C  0.08949545  0.39268803  0.33680313    -0.24100
C692        C  0.08410466  0.39578671  0.26880279    -0.28700
C693        C  0.10295819  0.41819001  0.26006604     0.06900
C694        C  0.12322818  0.43979539  0.26858047    -0.27300
H695        H  0.05069910  0.35566832  0.28817970     0.11600
H696        H  0.05308576  0.35431560  0.31782748     0.12700
H697        H  0.15968529  0.47814950  0.28755951     0.11800
H698        H  0.16208376  0.47679911  0.31721361     0.11100
H699        H  0.14427218  0.45357203  0.34293297     0.16400
H700        H  0.07482514  0.37521604  0.34323910     0.12400
H701        H  0.06846767  0.37889132  0.26247625     0.15200
H702        H  0.13780116  0.45728379  0.26211969     0.15000
C703        C  0.01174860  0.28426380  0.97435498    -0.17900
C704        C  0.01719158  0.28637230  0.95772935    -0.20100
C705        C  0.01931867  0.26732104  0.94987400     0.20600
C706        C  0.01583909  0.24590096  0.95883360    -0.03000
C707        C  0.01035265  0.24377730  0.97560856    -0.06000
C708        C  0.00832939  0.26306361  0.98340493     0.20900
C709        C  0.50696460  0.22239507  0.98456643     0.19000
C710        C  0.50899217  0.20329409  0.97670668    -0.17500
C711        C  0.51443196  0.20540237  0.96009202    -0.19800
C712        C  0.51794204  0.22665069  0.95106152     0.20500
C713        C  0.52367837  0.22903176  0.93442795    -0.32800
C714        C  0.02749259  0.25049221  0.92538586     0.01200
C715        C  0.02507126  0.26945675  0.93325188    -0.24100
C716        C  0.00298233  0.26085740  0.00010437    -0.28700
C717        C  0.99959085  0.23958423  0.00916737     0.06900
C718        C  0.50160330  0.22043536  0.00122397    -0.27300
H719        H  0.01025432  0.29924914  0.98014036     0.11600
H720        H  0.01981150  0.30295550  0.95102208     0.12700
H721        H  0.50641807  0.18673185  0.98341946     0.11800
H722        H  0.51597175  0.19044105  0.95431409     0.11100
H723        H  0.52522509  0.21412787  0.92861817     0.16400
H724        H  0.02796096  0.28614449  0.92658129     0.12400
H725        H  0.00166025  0.27585381  0.00598664     0.15200
H726        H  0.49885499  0.20380264  0.00789795     0.15000
C727        C  0.31392715  0.00085230  0.97939536    -0.17900
C728        C  0.31201316  0.99614841  0.96270409    -0.20100
C729        C  0.28897705  0.98885076  0.95429674     0.20600
C730        C  0.26766835  0.48629651  0.96278103    -0.03000
C731        C  0.26959016  0.49101998  0.97962593    -0.06000
C732        C  0.29283094  0.49832671  0.98795539     0.20900
C733        C  0.24829926  0.48851123  0.98810402     0.19000
C734        C  0.22527575  0.48125219  0.97969438    -0.17500
C735        C  0.22337349  0.47657797  0.96299948    -0.19800
C736        C  0.24445775  0.47907066  0.95444246     0.20500
C737        C  0.24271050  0.47444867  0.93770278    -0.32800
C738        C  0.26386110  0.97693671  0.92912140     0.01200
C739        C  0.28692629  0.98413498  0.93755683    -0.24100
C740        C  0.29466819  0.50318001  0.00466725    -0.28700
C741        C  0.27360747  0.50093346  0.01321609     0.06900
C742        C  0.25042772  0.49342932  0.00481770    -0.27300
H743        H  0.33193130  0.00649366  0.98560965     0.11600
H744        H  0.32857175  0.99823267  0.95636552     0.12700
H745        H  0.20874988  0.47924569  0.98602385     0.11800
H746        H  0.20540336  0.47103561  0.95677297     0.11100
H747        H  0.22472158  0.46867429  0.93144477     0.16400
H748        H  0.30346370  0.98638191  0.93111748     0.12400
H749        H  0.31273346  0.50916050  0.01088991     0.15200
H750        H  0.23395479  0.49134713  0.01124062     0.15000
C751        C  0.32283156  0.28341560  0.97658171    -0.17900
C752        C  0.32225168  0.28468394  0.95964855    -0.20100
C753        C  0.29881580  0.26838502  0.95116786     0.20600
C754        C  0.27571290  0.25074282  0.95983568    -0.03000
C755        C  0.27629279  0.24948046  0.97691491    -0.06000
C756        C  0.29998793  0.26583977  0.98530690     0.20900
C757        C  0.25320832  0.23174834  0.98556946     0.19000
C758        C  0.22972450  0.21561797  0.97710512    -0.17500
C759        C  0.22914919  0.21687209  0.96017773    -0.19800
C760        C  0.25204417  0.23427766  0.95144588     0.20500
C761        C  0.25164633  0.23549606  0.93447758    -0.32800
C762        C  0.27458403  0.25299115  0.92570536     0.01200
C763        C  0.29810269  0.26938694  0.93418149    -0.24100
C764        C  0.30048880  0.26418012  0.00225542    -0.28700
C765        C  0.27762506  0.24633974  0.01098195     0.06900
C766        C  0.25402050  0.23031902  0.00251981    -0.27300
H767        H  0.34120057  0.29613984  0.98286065     0.11600
H768        H  0.34015923  0.29836859  0.95317705     0.12700
H769        H  0.21181276  0.20193361  0.98357722     0.11800
H770        H  0.21078496  0.20414121  0.95390116     0.11100
H771        H  0.23329560  0.22296404  0.92818205     0.16400
H772        H  0.31595596  0.28282419  0.92760460     0.12400
H773        H  0.31887836  0.27652899  0.00856251     0.15200
H774        H  0.23620224  0.21672921  0.00907305     0.15000
N775        N  0.24121711  0.68467031  0.09603877    -0.27400
N776        N  0.25448908  0.69454990  0.10964782    -0.35200
C777        C  0.24546232  0.67567071  0.12095529     0.01000
C778        C  0.22549571  0.65277438  0.11416386     0.07000
C779        C  0.22307691  0.65907505  0.09839149    -0.06100
H780        H  0.25383872  0.67817123  0.13292580     0.07700
H781        H  0.21031234  0.64577635  0.08904616     0.08900
Cu782      Cu  0.28720833  0.73148933  0.11178784     0.44200
Cu783      Cu  0.25159620  0.70550124  0.07440456     0.42000
Cu784      Cu  0.31456914  0.76779701  0.07491039     0.43900
N785        N  0.32388424  0.76481657  0.11030948    -0.34700
N786        N  0.33418165  0.77828502  0.09675496    -0.29000
C787        C  0.35953114  0.79677626  0.09933004    -0.05100
C788        C  0.36530798  0.79441437  0.11520625     0.07100
C789        C  0.34232337  0.77410053  0.12185474     0.00900
H790        H  0.37309229  0.80967694  0.09004999     0.08600
H791        H  0.33955516  0.76561220  0.13384048     0.07600
N792        N  0.29202040  0.75160301  0.05438087    -0.36200
N793        N  0.26905845  0.72908002  0.05413772    -0.28400
C794        C  0.26018337  0.72391453  0.03879215    -0.03600
C795        C  0.27849842  0.74416037  0.02886118     0.05000
C796        C  0.29840445  0.76135417  0.03924175     0.03100
H797        H  0.24207385  0.70628303  0.03515305     0.08200
H798        H  0.31640106  0.77957873  0.03611844     0.07000
N799        N  0.30870694  0.81401545  0.84060910    -0.27400
N800        N  0.29433604  0.80443793  0.82734574    -0.35200
C801        C  0.30305022  0.82336582  0.81609198     0.01000
C802        C  0.32389217  0.84600927  0.82256153     0.07000
C803        C  0.32717535  0.83948182  0.83808651    -0.06100
H804        H  0.29379330  0.82115341  0.80446117     0.07700
H805        H  0.34077887  0.85258885  0.84720635     0.08900
Cu806      Cu  0.26052676  0.76810505  0.82572436     0.44200
Cu807      Cu  0.29955960  0.79305449  0.86216321     0.42000
Cu808      Cu  0.23582542  0.73074050  0.86220602     0.43900
N809        N  0.22343221  0.73540333  0.82772094    -0.34700
N810        N  0.21394513  0.72142551  0.84118206    -0.29000
C811        C  0.18831270  0.70325750  0.83907302    -0.05100
C812        C  0.18156304  0.70633412  0.82358043     0.07100
C813        C  0.20425804  0.72677291  0.81671236     0.00900
H814        H  0.17535058  0.68980350  0.84837576     0.08600
H815        H  0.20645663  0.73555639  0.80488069     0.07600
N816        N  0.25980707  0.74659625  0.88231394    -0.36200
N817        N  0.28281620  0.76910226  0.88237884    -0.28400
C818        C  0.29199153  0.77446514  0.89766290    -0.03600
C819        C  0.27381600  0.75443304  0.90776050     0.05000
C820        C  0.25374032  0.73706877  0.89751823     0.03100
H821        H  0.31001763  0.79228080  0.90118591     0.08200
H822        H  0.23561285  0.71910973  0.90082183     0.07000
O823        O  0.23464464  0.74295574  0.46987042    -0.73000
O824        O  0.30553413  0.77209216  0.48953974    -0.74000
O825        O  0.28269050  0.79196068  0.46920808    -0.62600
O826        O  0.25733202  0.72306790  0.49044913    -0.71000
O827        O  0.26912156  0.71060745  0.46871753    -0.70600
O828        O  0.29459910  0.77975277  0.44741244    -0.61800
O829        O  0.31716179  0.75956197  0.46776758    -0.74300
O830        O  0.24654399  0.73053542  0.44817410    -0.73100
Cu831      Cu  0.26961489  0.75794179  0.48053214     1.04600
Cu832      Cu  0.28227398  0.74468156  0.45725703     1.04300
C833        C  0.22958894  0.73248266  0.45583781     0.93200
C834        C  0.32240024  0.77009512  0.48176328     0.92300
C835        C  0.29237071  0.79662761  0.45493682     0.84500
C836        C  0.25954844  0.70613303  0.48302976     0.90700
O837        O  0.06706065  0.90969320  0.80256877    -0.73000
O838        O  0.13659998  0.93702224  0.82359497    -0.74000
O839        O  0.11552801  0.95845498  0.80296451    -0.62600
O840        O  0.08804143  0.88840754  0.82323767    -0.71000
O841        O  0.10091728  0.87686042  0.80158337    -0.70600
O842        O  0.12826654  0.94688509  0.78126018    -0.61800
O843        O  0.14927642  0.92548094  0.80184848    -0.74300
O844        O  0.07983011  0.89805987  0.78091013    -0.73100
Cu845      Cu  0.10135285  0.92382249  0.81384971     1.04600
Cu846      Cu  0.11502053  0.91141459  0.79064440     1.04300
C847        C  0.06260342  0.89980917  0.78838847     0.93200
C848        C  0.15375043  0.93517045  0.81607383     0.92300
C849        C  0.12598740  0.96362722  0.78889370     0.84500
C850        C  0.09043281  0.87171698  0.81564703     0.90700
N851        N  0.25189092  0.04805704  0.09388398    -0.27400
N852        N  0.26750191  0.05640706  0.10667554    -0.35200
C853        C  0.25871836  0.06600681  0.11760024     0.01000
C854        C  0.23645403  0.06351180  0.11142851     0.07000
C855        C  0.23259353  0.05204119  0.09638056    -0.06100
H856        H  0.26766604  0.07380746  0.12929041     0.07700
H857        H  0.21684433  0.04676267  0.08794915     0.08900
Cu858      Cu  0.29976388  0.05417635  0.10916882     0.44200
Cu859      Cu  0.25786969  0.03183675  0.07373775     0.42000
Cu860      Cu  0.31545224  0.02791876  0.07599706     0.43900
N861        N  0.33222452  0.05203744  0.10895287    -0.34700
N862        N  0.33823896  0.04251855  0.09666852    -0.29000
C863        C  0.36138914  0.04555703  0.09968159    -0.05100
C864        C  0.37020171  0.05750677  0.11460427     0.07100
C865        C  0.35123909  0.06128266  0.12016648     0.00900
H866        H  0.37137946  0.04017578  0.09142159     0.08600
H867        H  0.35164992  0.57088604  0.13124998     0.07600
N868        N  0.29148056  0.01769703  0.05585811    -0.36200
N869        N  0.27066277  0.01906499  0.05500068    -0.28400
C870        C  0.26070669  0.01263924  0.03992697    -0.03600
C871        C  0.27605416  0.00705671  0.03077801     0.05000
C872        C  0.29533656  0.01041715  0.04136797     0.03100
H873        H  0.24414449  0.01310816  0.03582602     0.08200
H874        H  0.31141716  0.00832594  0.03874423     0.07000
N875        N  0.29266437  0.94485812  0.84491247    -0.27400
N876        N  0.27882276  0.93968496  0.83146204    -0.35200
C877        C  0.28879157  0.93221623  0.81989339     0.01000
C878        C  0.31003850  0.93289926  0.82633217     0.07000
C879        C  0.31202664  0.94104461  0.84219725    -0.06100
H880        H  0.28135265  0.92708563  0.80763195     0.07700
H881        H  0.32642731  0.94395791  0.85110933     0.08900
Cu882      Cu  0.24734545  0.94337165  0.82912775     0.44200
Cu883      Cu  0.28405640  0.45614223  0.86639164     0.42000
Cu884      Cu  0.22732565  0.46094000  0.86498505     0.43900
N885        N  0.21558366  0.94677467  0.82982801    -0.34700
N886        N  0.20812649  0.95319198  0.84300153    -0.29000
C887        C  0.18556413  0.95136239  0.83990687    -0.05100
C888        C  0.17854900  0.94333843  0.82402871     0.07100
C889        C  0.19802596  0.94069786  0.81798058     0.00900
H890        H  0.17441080  0.95424443  0.84880781     0.08600
H891        H  0.19866683  0.93350704  0.80614796     0.07600
N892        N  0.24844311  0.46580332  0.88582271    -0.36200
N893        N  0.26917058  0.46427136  0.88639070    -0.28400
C894        C  0.27791927  0.46805358  0.90176761    -0.03600
C895        C  0.26187667  0.47211684  0.91138832     0.05000
C896        C  0.24340532  0.47052647  0.90078395     0.03100
H897        H  0.29449200  0.46742041  0.90562316     0.08200
H898        H  0.22746593  0.47274915  0.90361229     0.07000
N899        N  0.96385199  0.76558750  0.09336766    -0.27400
N900        N  0.95992420  0.75239013  0.10701683    -0.35200
C901        C  0.95323935  0.76268067  0.11881898     0.01000
C902        C  0.95322623  0.78351788  0.11232876     0.07000
C903        C  0.96005447  0.78489666  0.09619457    -0.06100
H904        H  0.44911605  0.75573455  0.13124899     0.07700
H905        H  0.96203443  0.79881840  0.08716558     0.08900
Cu906      Cu  0.96456026  0.72164710  0.10946188     0.44200
Cu907      Cu  0.97396402  0.75670653  0.07151134     0.42000
Cu908      Cu  0.98287705  0.70287272  0.07344919     0.43900
N909        N  0.96943682  0.69095467  0.10875467    -0.34700
N910        N  0.97602101  0.68382886  0.09551112    -0.29000
C911        C  0.97486027  0.66160223  0.09862015    -0.05100
C912        C  0.96711135  0.65450313  0.11458190     0.07100
C913        C  0.96394889  0.67357005  0.12065967     0.00900
H914        H  0.97782918  0.65061745  0.08966284     0.08600
H915        H  0.45658377  0.67390947  0.13251675     0.07600
N916        N  0.98722794  0.72366311  0.05247571    -0.36200
N917        N  0.98391781  0.74324107  0.05162155    -0.28400
C918        C  0.98786584  0.75205582  0.03620762    -0.03600
C919        C  0.99395213  0.73726006  0.02686105     0.05000
C920        C  0.99335505  0.71947596  0.03770075     0.03100
H921        H  0.98612657  0.76789775  0.03217166     0.08200
H922        H  0.99711189  0.70450163  0.03518596     0.07000
N923        N  0.07581614  0.73046077  0.84407394    -0.27400
N924        N  0.08308264  0.74554535  0.83099357    -0.35200
C925        C  0.09237689  0.73675241  0.81986233     0.01000
C926        C  0.09080034  0.71501774  0.82619906     0.07000
C927        C  0.08019432  0.71147080  0.84154699    -0.06100
H928        H  0.09941989  0.74538107  0.80796244     0.07700
H929        H  0.07587227  0.69619753  0.85019875     0.08900
Cu930      Cu  0.08002877  0.77717556  0.82837160     0.44200
Cu931      Cu  0.06053119  0.73656989  0.86472359     0.42000
Cu932      Cu  0.05501261  0.79261163  0.86243375     0.43900
N933        N  0.07703876  0.80898062  0.82885446    -0.34700
N934        N  0.06806744  0.81496993  0.84146220    -0.29000
C935        C  0.07061694  0.83790840  0.83851850    -0.05100
C936        C  0.08167823  0.84657292  0.82330753     0.07100
C937        C  0.08544534  0.82777929  0.81750400     0.00900
H938        H  0.06569033  0.84794008  0.84704285     0.08600
H939        H  0.09464636  0.82824815  0.80619367     0.07600
N940        N  0.04538454  0.76902875  0.88276140    -0.36200
N941        N  0.04748060  0.74868559  0.88372931    -0.28400
C942        C  0.04099189  0.73862332  0.89883383    -0.03600
C943        C  0.03450879  0.75339079  0.90787886     0.05000
C944        C  0.03750389  0.77245959  0.89716154     0.03100
H945        H  0.04169475  0.72219419  0.90294146     0.08200
H946        H  0.03471138  0.78811273  0.89959419     0.07000
O947        O  0.46095804  0.61270540  0.11484097    -0.73000
O948        O  0.43314323  0.54267777  0.13529814    -0.74000
O949        O  0.41224930  0.56418372  0.11480964    -0.62600
O950        O  0.48189334  0.59110599  0.13542316    -0.71000
O951        O  0.46955003  0.60277809  0.15726661    -0.70600
O952        O  0.40020405  0.57667703  0.13640252    -0.61800
O953        O  0.42044283  0.55444955  0.15692434    -0.74300
O954        O  0.44910816  0.62484294  0.13670009    -0.73100
Cu955      Cu  0.44753391  0.57726920  0.12434267     1.04600
Cu956      Cu  0.43442903  0.59014176  0.14759313     1.04300
C957        C  0.45900805  0.62965089  0.12247493     0.93200
C958        C  0.42242148  0.53751864  0.14928614     0.92300
C959        C  0.39534431  0.56641196  0.12232504     0.84500
C960        C  0.48654977  0.60081203  0.14965594     0.90700
N961        N  0.16955312  0.94944893  0.43055522    -0.27400
N962        N  0.15980949  0.93539920  0.44398328    -0.35200
C963        C  0.17868957  0.94431214  0.45523355     0.01000
C964        C  0.20146602  0.46498114  0.44858420     0.07000
C965        C  0.19503927  0.46791151  0.43295351    -0.06100
H966        H  0.17636053  0.93532429  0.46700616     0.07700
H967        H  0.20824622  0.48123768  0.42368723     0.08900
Cu968      Cu  0.12317118  0.90174749  0.44569464     0.44200
Cu969      Cu  0.14868894  0.93962202  0.40901839     0.42000
Cu970      Cu  0.08570643  0.87631821  0.40928723     0.43900
N971        N  0.09032608  0.86459230  0.44401040    -0.34700
N972        N  0.07632556  0.85492712  0.43063080    -0.29000
C973        C  0.05838312  0.82925880  0.43291124    -0.05100
C974        C  0.06162926  0.82262204  0.44841212     0.07100
C975        C  0.08191316  0.84546613  0.45512456     0.00900
H976        H  0.54513121  0.81615002  0.42366204     0.08600
H977        H  0.09088660  0.84776256  0.46686924     0.07600
N978        N  0.10247500  0.89976881  0.38892621    -0.36200
N979        N  0.12522003  0.92253954  0.38876731    -0.28400
C980        C  0.13107485  0.93145485  0.37340668    -0.03600
C981        C  0.11108469  0.91340069  0.36332549     0.05000
C982        C  0.09326876  0.89361762  0.37369867     0.03100
H983        H  0.14905560  0.94940551  0.36989847     0.08200
H984        H  0.07515753  0.87564282  0.37051497     0.07000
N985        N  0.04136554  0.88489232  0.17541481    -0.27400
N986        N  0.05132378  0.89838946  0.16182316    -0.35200
C987        C  0.03247074  0.88948724  0.15056317     0.01000
C988        C  0.50954837  0.86933908  0.15738728     0.07000
C989        C  0.51578903  0.86676319  0.17312313    -0.06100
H990        H  0.03506434  0.89784277  0.13855027     0.07700
H991        H  0.50251404  0.85366034  0.18244238     0.08900
Cu992      Cu  0.08872453  0.93059269  0.15963578     0.44200
Cu993      Cu  0.06230663  0.89433371  0.19683731     0.42000
Cu994      Cu  0.12693430  0.95517967  0.19592629     0.43900
N995        N  0.12294572  0.96663082  0.16106682    -0.34700
N996        N  0.13713263  0.97608156  0.17439570    -0.29000
C997        C  0.15580108  0.50150558  0.17197266    -0.05100
C998        C  0.15280550  0.50817026  0.15643291     0.07100
C999        C  0.13197242  0.98562344  0.14983874     0.00900
H1000       H  0.16922000  0.51452435  0.18119151     0.08600
H1001       H  0.12286730  0.98357462  0.13817313     0.07600
N1002       N  0.10986188  0.93249090  0.21649377    -0.36200
N1003       N  0.08643487  0.91050310  0.21685547    -0.28400
C1004       C  0.08059002  0.90176373  0.23224044    -0.03600
C1005       C  0.10132062  0.91913034  0.24212761     0.05000
C1006       C  0.11955061  0.93832916  0.23162787     0.03100
H1007       H  0.06214146  0.88447951  0.23591088     0.08200
H1008       H  0.13830883  0.95566159  0.23467294     0.07000
N1009       N  0.08840252  0.71793364  0.42733986    -0.27400
N1010       N  0.10369862  0.72568246  0.44026030    -0.35200
C1011       C  0.09487542  0.73510541  0.45129022     0.01000
C1012       C  0.07288979  0.73311393  0.44503337     0.07000
C1013       C  0.06925177  0.72212341  0.42983893    -0.06100
H1014       H  0.10355135  0.74237183  0.46310715     0.07700
H1015       H  0.05371354  0.71725454  0.42132253     0.08900
Cu1016     Cu  0.13534387  0.72249825  0.44263278     0.44200
Cu1017     Cu  0.09456037  0.70196192  0.40713482     0.42000
Cu1018     Cu  0.15029692  0.69548057  0.40908712     0.43900
N1019       N  0.16684070  0.71885860  0.44238281    -0.34700
N1020       N  0.17268696  0.70924325  0.43005946    -0.29000
C1021       C  0.19555307  0.71170318  0.43319361    -0.05100
C1022       C  0.20430391  0.72333488  0.44822284     0.07100
C1023       C  0.18561809  0.72753389  0.45371389     0.00900
H1024       H  0.20552742  0.70636539  0.42489001     0.08600
H1025       H  0.18620637  0.73730212  0.46476133     0.07600
N1026       N  0.12628555  0.68587094  0.38892950    -0.36200
N1027       N  0.10610300  0.68828220  0.38822080    -0.28400
C1028       C  0.09587416  0.68216631  0.37320150    -0.03600
C1029       C  0.11035426  0.67565327  0.36388313     0.05000
C1030       C  0.12942704  0.67815912  0.37437188     0.03100
H1031       H  0.07949081  0.68311080  0.36934366     0.08200
H1032       H  0.14519436  0.67567576  0.37154275     0.07000
N1033       N  0.12571099  0.61104241  0.17817342    -0.27400
N1034       N  0.11156645  0.60555468  0.16483241    -0.35200
C1035       C  0.12083636  0.59720579  0.15336871     0.01000
C1036       C  0.14193321  0.59759467  0.15975462     0.07000
C1037       C  0.14459050  0.60651999  0.17548072    -0.06100
H1038       H  0.11297722  0.59160769  0.14122103     0.07700
H1039       H  0.15910517  0.60946720  0.18431285     0.08900
Cu1040     Cu  0.08046028  0.60967024  0.16246206     0.44200
Cu1041     Cu  0.11811944  0.62369781  0.19947432     0.42000
Cu1042     Cu  0.06201757  0.62932074  0.19786338     0.43900
N1043       N  0.04869376  0.61290938  0.16313304    -0.34700
N1044       N  0.04168541  0.62000773  0.17619706    -0.29000
C1045       C  0.01896730  0.61791036  0.17320429    -0.05100
C1046       C  0.01143101  0.60902647  0.15750210     0.07100
C1047       C  0.03073330  0.60613693  0.15145465     0.00900
H1048       H  0.00815685  0.62137133  0.18204406     0.08600
H1049       H  0.03105554  0.59842297  0.13974322     0.07600
N1050       N  0.08384063  0.63549336  0.21859751    -0.36200
N1051       N  0.10425632  0.63346318  0.21927246    -0.28400
C1052       C  0.11321043  0.63767968  0.23461789    -0.03600
C1053       C  0.09765267  0.64259925  0.24412085     0.05000
C1054       C  0.07925640  0.64105247  0.23344683     0.03100
H1055       H  0.12971530  0.63695903  0.23849912     0.08200
H1056       H  0.06321851  0.64313026  0.23623268     0.07000
O1057       O  0.15740989  0.53726614  0.13574804    -0.73000
O1058       O  0.19269409  0.60747562  0.11455375    -0.74000
O1059       O  0.19831525  0.56458471  0.11315201    -0.62600
O1060       O  0.15175427  0.58035469  0.13730314    -0.71000
O1061       O  0.17988214  0.59630538  0.15785554    -0.70600
O1062       O  0.22664005  0.58113766  0.13358897    -0.61800
O1063       O  0.22071145  0.62397721  0.13516120    -0.74300
O1064       O  0.18569711  0.55353095  0.15622361    -0.73100
Cu1065     Cu  0.17399905  0.57181166  0.12449219     1.04600
Cu1066     Cu  0.20426858  0.58935694  0.14640838     1.04300
C1067       C  0.16602550  0.53422127  0.14914068     0.93200
C1068       C  0.21226512  0.62685799  0.12163853     0.92300
C1069       C  0.21974354  0.57019157  0.11970851     0.84500
C1070       C  0.15857005  0.59098621  0.15128574     0.90700
O1071       O  0.02913296  0.77716444  0.44841398    -0.73000
O1072       O  0.49342463  0.70625579  0.46894307    -0.74000
O1073       O  0.48778664  0.74930729  0.47076334    -0.62600
O1074       O  0.03481646  0.73426036  0.44668271    -0.71000
O1075       O  0.06276874  0.75031557  0.46732236    -0.70600
O1076       O  0.01560563  0.76516134  0.49147619    -0.61800
O1077       O  0.02124737  0.72222163  0.48965433    -0.74300
O1078       O  0.05693050  0.79331710  0.46913250    -0.73100
Cu1079     Cu  0.51028246  0.74115920  0.45799969     1.04600
Cu1080     Cu  0.04017269  0.75834545  0.48010956     1.04300
C1081       C  0.04856699  0.79647710  0.45565640     0.93200
C1082       C  0.50170430  0.70299291  0.48240800     0.92300
C1083       C  0.99438977  0.75986560  0.48476575     0.84500
C1084       C  0.05611044  0.73968312  0.45334130     0.90700
N1085       N  0.96213321  0.78191555  0.51056185    -0.27400
N1086       N  0.44756824  0.77518097  0.49732048    -0.35200
C1087       C  0.95641739  0.76566656  0.48637727     0.01000
C1088       C  0.97766621  0.76658775  0.49298111     0.07000
C1089       C  0.98084589  0.77701286  0.50831257    -0.06100
H1090       H  0.44834180  0.75917508  0.47434643     0.07700
H1091       H  0.99583636  0.78109124  0.51708234     0.08900
Cu1092     Cu  0.41683325  0.77972542  0.49410226     0.44200
Cu1093     Cu  0.45612101  0.79779479  0.53093213     0.42000
Cu1094     Cu  0.40211496  0.80631509  0.52788487     0.43900
N1095       N  0.38547371  0.78370033  0.49448221    -0.34700
N1096       N  0.37979406  0.79316473  0.50696904    -0.29000
C1097       C  0.35688433  0.79074323  0.50412832    -0.05100
C1098       C  0.34785490  0.77925384  0.48911595     0.07100
C1099       C  0.36646884  0.77512950  0.48331111     0.00900
H1100       H  0.34703336  0.79591581  0.51265167     0.08600
H1101       H  0.36561884  0.76538884  0.47219055     0.07600
N1102       N  0.42524598  0.81550710  0.54834021    -0.36200
N1103       N  0.44503034  0.81252714  0.54952401    -0.28400
C1104       C  0.45509377  0.81917736  0.56458283    -0.03600
C1105       C  0.44082396  0.82654006  0.57335960     0.05000
C1106       C  0.42209094  0.82398001  0.56259118     0.03100
H1107       H  0.97097484  0.81774796  0.56895991     0.08200
H1108       H  0.40694054  0.82758539  0.56493611     0.07000
N1109       N  0.42552544  0.89220057  0.75867384    -0.27400
N1110       N  0.43910158  0.89697506  0.77219261    -0.35200
C1111       C  0.42924761  0.90456074  0.78375765     0.01000
C1112       C  0.40829612  0.90434566  0.77725392     0.07000
C1113       C  0.40639475  0.89638005  0.76133857    -0.06100
H1114       H  0.43646279  0.90930237  0.79608370     0.07700
H1115       H  0.39213067  0.89370770  0.75239180     0.08900
Cu1116     Cu  0.46976740  0.89216676  0.77458740     0.44200
Cu1117     Cu  0.43416478  0.88050639  0.73735515     0.42000
Cu1118     Cu  0.48907779  0.87258368  0.73918247     0.43900
N1119       N  0.50085689  0.88781748  0.77425579    -0.34700
N1120       N  0.50814415  0.88073900  0.76130304    -0.29000
C1121       C  0.03063323  0.88253492  0.76462203    -0.05100
C1122       C  0.03774170  0.89124138  0.78039469     0.07100
C1123       C  0.51839159  0.89425810  0.78616358     0.00900
H1124       H  0.04174508  0.87927831  0.75590522     0.08600
H1125       H  0.51790738  0.90210325  0.79778941     0.07600
N1126       N  0.46833934  0.86841193  0.71821105    -0.36200
N1127       N  0.44831314  0.87108950  0.71753351    -0.28400
C1128       C  0.43981221  0.86776191  0.70211112    -0.03600
C1129       C  0.45531596  0.86288845  0.69255908     0.05000
C1130       C  0.47317963  0.86344145  0.70324850     0.03100
H1131       H  0.42389221  0.86942291  0.69814077     0.08200
H1132       H  0.48863073  0.86046567  0.70043661     0.07000
O1133       O  0.32833926  0.87498454  0.80176069    -0.73000
O1134       O  0.36214162  0.94576555  0.78133037    -0.74000
O1135       O  0.36942606  0.90404425  0.77927545    -0.62600
O1136       O  0.32101202  0.91695023  0.80372749    -0.71000
O1137       O  0.34890238  0.93314819  0.82439134    -0.70600
O1138       O  0.39733965  0.92021364  0.79992800    -0.61800
O1139       O  0.39000381  0.96212975  0.80202082    -0.74300
O1140       O  0.35626022  0.89145184  0.82241385    -0.73100
Cu1141     Cu  0.34420171  0.90980740  0.79081675     1.04600
Cu1142     Cu  0.37415526  0.92735534  0.81288930     1.04300
C1143       C  0.33689559  0.87202804  0.81521879     0.93200
C1144       C  0.38145416  0.96515332  0.78859334     0.92300
C1145       C  0.39093909  0.90992840  0.78583809     0.84500
C1146       C  0.32740909  0.92728609  0.81779784     0.90700
N1147       N  0.37895208  0.55125366  0.50749554    -0.27400
N1148       N  0.38891634  0.56484365  0.49392609    -0.35200
C1149       C  0.36998902  0.55608933  0.48270813     0.01000
C1150       C  0.34699038  0.03600564  0.48952911     0.07000
C1151       C  0.35331464  0.03325512  0.50521842    -0.06100
H1152       H  0.37249856  0.56476224  0.47080513     0.07700
H1153       H  0.33998991  0.02034568  0.51458431     0.08900
Cu1154     Cu  0.42609168  0.59779183  0.49192599     0.44200
Cu1155     Cu  0.39973757  0.56084155  0.52905152     0.42000
Cu1156     Cu  0.46283263  0.62317558  0.52877576     0.43900
N1157       N  0.45916173  0.63486214  0.49386148    -0.34700
N1158       N  0.97273519  0.64444948  0.50739961    -0.29000
C1159       C  0.99091152  0.67007736  0.50522202    -0.05100
C1160       C  0.98831036  0.67680815  0.48961481     0.07100
C1161       C  0.96811982  0.65404827  0.48273775     0.00900
H1162       H  0.00388624  0.68310324  0.51459764     0.08600
H1163       H  0.45957369  0.65187114  0.47085819     0.07600
N1164       N  0.44639827  0.59970011  0.54911540    -0.36200
N1165       N  0.42351310  0.57709479  0.54926345    -0.28400
C1166       C  0.41789720  0.56782745  0.56455637    -0.03600
C1167       C  0.43821211  0.58551485  0.57460032     0.05000
C1168       C  0.45594856  0.60544390  0.56428514     0.03100
H1169       H  0.39999556  0.54982855  0.56803132     0.08200
H1170       H  0.97405465  0.62337054  0.56752493     0.07000
N1171       N  0.41020009  0.02329178  0.76341971    -0.27400
N1172       N  0.42416776  0.53280714  0.77682839    -0.35200
C1173       C  0.41507074  0.01382661  0.78806436     0.01000
C1174       C  0.39443402  0.99123233  0.78139680     0.07000
C1175       C  0.39163366  0.99783595  0.76579993    -0.06100
H1176       H  0.42404309  0.01591950  0.79978377     0.07700
H1177       H  0.37845245  0.98475525  0.75651498     0.08900
Cu1178     Cu  0.45820937  0.56891367  0.77855167     0.44200
Cu1179     Cu  0.42039298  0.54401274  0.74183577     0.42000
Cu1180     Cu  0.98468444  0.60503016  0.74165526     0.43900
N1181       N  0.99539091  0.60150500  0.77674807    -0.34700
N1182       N  0.00541072  0.61504469  0.76318477    -0.29000
C1183       C  0.03092116  0.63331849  0.76556877    -0.05100
C1184       C  0.03706680  0.63074977  0.78133583     0.07100
C1185       C  0.01413049  0.61050541  0.78809277     0.00900
H1186       H  0.04426245  0.64639846  0.75626639     0.08600
H1187       H  0.01150176  0.60205907  0.80007991     0.07600
N1188       N  0.46142817  0.58884954  0.72128368    -0.36200
N1189       N  0.43808179  0.56677087  0.72140244    -0.28400
C1190       C  0.42884026  0.56104794  0.70617236    -0.03600
C1191       C  0.44725102  0.58046646  0.69584883     0.05000
C1192       C  0.46767233  0.59779354  0.70594851     0.03100
H1193       H  0.41034817  0.54355563  0.70294652     0.08200
H1194       H  0.98597699  0.61539971  0.70250916     0.07000
O1195       O  0.45308316  0.82204085  0.11411186    -0.73000
O1196       O  0.43750037  0.86900583  0.13753169    -0.74000
O1197       O  0.48073483  0.86364892  0.13623182    -0.62600
O1198       O  0.41036610  0.82754828  0.11551401    -0.71000
O1199       O  0.39399090  0.79962340  0.13630294    -0.70600
O1200       O  0.46438068  0.83603695  0.15716579    -0.61800
O1201       O  0.42115523  0.84110344  0.15831724    -0.74300
O1202       O  0.43725528  0.79433011  0.13500290    -0.73100
Cu1203     Cu  0.44605795  0.84658609  0.12514469     1.04600
Cu1204     Cu  0.42862210  0.81675750  0.14742751     1.04300
C1205       C  0.44757039  0.80075461  0.12087673     0.93200
C1206       C  0.42651176  0.86227763  0.15145439     0.92300
C1207       C  0.48367916  0.85562382  0.14990943     0.84500
C1208       C  0.39107479  0.80790856  0.12272031     0.90700
N1209       N  0.30075683  0.93477796  0.42571613    -0.27400
N1210       N  0.29603829  0.92119853  0.43928019    -0.35200
C1211       C  0.28868066  0.93118195  0.45088029     0.01000
C1212       C  0.28898181  0.45218241  0.44434525     0.07000
C1213       C  0.29678792  0.45402875  0.42838083    -0.06100
H1214       H  0.28388826  0.92392290  0.46322987     0.07700
H1215       H  0.29935771  0.46823169  0.41937779     0.08900
Cu1216     Cu  0.30019778  0.89007246  0.44171455     0.44200
Cu1217     Cu  0.31181337  0.92591382  0.40429434     0.42000
Cu1218     Cu  0.32100906  0.87190341  0.40646393     0.43900
N1219       N  0.30386832  0.85850616  0.44118426    -0.34700
N1220       N  0.31150789  0.85176395  0.42824439    -0.29000
C1221       C  0.30959870  0.82916390  0.43134215    -0.05100
C1222       C  0.30031369  0.82141206  0.44698729     0.07100
C1223       C  0.29696040  0.84046371  0.45289780     0.00900
H1224       H  0.31349391  0.81858507  0.42260225     0.08600
H1225       H  0.28889775  0.84057571  0.46454528     0.07600
N1226       N  0.32472224  0.89229165  0.38543976    -0.36200
N1227       N  0.32126223  0.91178297  0.38459772    -0.28400
C1228       C  0.32389352  0.91978436  0.36908274    -0.03600
C1229       C  0.32918374  0.90452259  0.35965265     0.05000
C1230       C  0.32959240  0.88732873  0.37050227     0.03100
H1231       H  0.32143487  0.93514867  0.36500068     0.08200
H1232       H  0.33297652  0.87213252  0.36782735     0.07000
N1233       N  0.40452471  0.89452907  0.17715281    -0.27400
N1234       N  0.41150214  0.90929939  0.16394473    -0.35200
C1235       C  0.42079325  0.90033854  0.15291414     0.01000
C1236       C  0.41949682  0.87884490  0.15948522     0.07000
C1237       C  0.40903768  0.87559833  0.17483481    -0.06100
H1238       H  0.42766243  0.90868567  0.14093656     0.07700
H1239       H  0.40489945  0.86056565  0.18363419     0.08900
Cu1240     Cu  0.40824149  0.94090050  0.16125530     0.44200
Cu1241     Cu  0.38929056  0.90085191  0.19764239     0.42000
Cu1242     Cu  0.38257395  0.95634006  0.19498251     0.43900
N1243       N  0.40628022  0.97342854  0.16186207    -0.34700
N1244       N  0.39710427  0.97940995  0.17436607    -0.29000
C1245       C  0.40069966  0.00288176  0.17165931    -0.05100
C1246       C  0.41270092  0.01195654  0.15671564     0.07100
C1247       C  0.41586498  0.99279458  0.15081122     0.00900
H1248       H  0.39581069  0.01295311  0.18017649     0.08600
H1249       H  0.42544522  0.99336528  0.13964920     0.07600
N1250       N  0.37209959  0.93210382  0.21502672    -0.36200
N1251       N  0.37470861  0.91208602  0.21613458    -0.28400
C1252       C  0.36776690  0.90175762  0.23114619    -0.03600
C1253       C  0.36052485  0.91605660  0.23996762     0.05000
C1254       C  0.36345289  0.93507079  0.22925767     0.03100
H1255       H  0.36902051  0.88573142  0.23544288     0.08200
H1256       H  0.36025105  0.95046812  0.23163695     0.07000
O1257       O  0.23054743  0.96946719  0.46928746    -0.73000
O1258       O  0.30146877  0.50356803  0.48951727    -0.74000
O1259       O  0.25935358  0.51024416  0.49180282    -0.62600
O1260       O  0.27291654  0.96276097  0.46703504    -0.71000
O1261       O  0.28901851  0.49088579  0.44636470    -0.70600
O1262       O  0.27561849  0.53849221  0.47119891    -0.61800
O1263       O  0.31792313  0.53169242  0.46885213    -0.74300
O1264       O  0.24694039  0.49768375  0.44866847    -0.73100
Cu1265     Cu  0.26545186  0.98547152  0.48010774     1.04600
Cu1266     Cu  0.28298366  0.51573350  0.45806831     1.04300
C1267       C  0.22752913  0.97811583  0.45587173     0.93200
C1268       C  0.32091405  0.52305076  0.48227902     0.92300
C1269       C  0.26526304  0.53184045  0.48530870     0.84500
C1270       C  0.28325691  0.96937184  0.45292413     0.90700
N1271       N  0.24759781  0.56617489  0.51262547    -0.27400
N1272       N  0.25340548  0.58047910  0.49928460    -0.35200
C1273       C  0.26098683  0.57070034  0.48769218     0.01000
C1274       C  0.25973678  0.54908864  0.49399290     0.07000
C1275       C  0.25115653  0.54668241  0.50982278    -0.06100
H1276       H  0.26656765  0.57852490  0.47549624     0.07700
H1277       H  0.24769165  0.53187922  0.51861933     0.08900
Cu1278     Cu  0.25040752  0.61228264  0.49706065     0.44200
Cu1279     Cu  0.23549221  0.57434557  0.53389815     0.42000
Cu1280     Cu  0.23143890  0.63182163  0.53218355     0.43900
N1281       N  0.24788625  0.64447691  0.49738240    -0.34700
N1282       N  0.24091796  0.65182122  0.51034581    -0.29000
C1283       C  0.24300039  0.67444726  0.50704278    -0.05100
C1284       C  0.25173483  0.68157479  0.49123541     0.07100
C1285       C  0.25459486  0.66215063  0.48545631     0.00900
H1286       H  0.23949521  0.68540868  0.51570957     0.08600
H1287       H  0.26205784  0.66145380  0.47371486     0.07600
N1288       N  0.22487636  0.60963378  0.55281912    -0.36200
N1289       N  0.22627876  0.58884279  0.55353709    -0.28400
C1290       C  0.22181144  0.57982402  0.56889927    -0.03600
C1291       C  0.21738675  0.59573565  0.57834125     0.05000
C1292       C  0.21950270  0.61440601  0.56764987     0.03100
H1293       H  0.22203937  0.56304778  0.57282482     0.08200
H1294       H  0.21795410  0.63076578  0.57039581     0.07000
N1295       N  0.14358268  0.60695743  0.76168818    -0.27400
N1296       N  0.13601448  0.59170370  0.77469589    -0.35200
C1297       C  0.12630471  0.60032090  0.78567630     0.01000
C1298       C  0.12792002  0.62208242  0.77927977     0.07000
C1299       C  0.13899531  0.62582720  0.76407773    -0.06100
H1300       H  0.11889456  0.59153547  0.79749885     0.07700
H1301       H  0.14349193  0.64115338  0.75542468     0.08900
Cu1302     Cu  0.13894777  0.55982729  0.77708896     0.44200
Cu1303     Cu  0.15943275  0.60114662  0.74129470     0.42000
Cu1304     Cu  0.16174810  0.54298550  0.74223060     0.43900
N1305       N  0.14060764  0.52710717  0.77608196    -0.34700
N1306       N  0.14864833  0.52063987  0.76321025    -0.29000
C1307       C  0.14548043  0.49736906  0.76595827    -0.05100
C1308       C  0.13493006  0.48890353  0.78129751     0.07100
C1309       C  0.13214381  0.50821263  0.78739112     0.00900
H1310       H  0.14971252  0.48702474  0.75723743     0.08600
H1311       H  0.12364669  0.50809322  0.79891848     0.07600
N1312       N  0.17349620  0.56835395  0.72266451    -0.36200
N1313       N  0.17272204  0.58951593  0.72225087    -0.28400
C1314       C  0.18023002  0.60060426  0.70745248    -0.03600
C1315       C  0.18597140  0.58564073  0.69804218     0.05000
C1316       C  0.18152534  0.56540693  0.70818894     0.03100
H1317       H  0.18071793  0.61787398  0.70377988     0.08200
H1318       H  0.18281229  0.54897394  0.70515514     0.07000
O1319       O  0.06589058  0.63623879  0.80246014    -0.73000
O1320       O  0.13632006  0.67295284  0.82349692    -0.74000
O1321       O  0.09271443  0.67747221  0.82473501    -0.62600
O1322       O  0.10958679  0.63151772  0.80125636    -0.71000
O1323       O  0.12579668  0.65958484  0.78055540    -0.70600
O1324       O  0.10865830  0.70547376  0.80399198    -0.61800
O1325       O  0.15242072  0.70094405  0.80274768    -0.74300
O1326       O  0.08219504  0.66413192  0.78166487    -0.73100
Cu1327     Cu  0.10052145  0.65352138  0.81369654     1.04600
Cu1328     Cu  0.11785589  0.68356192  0.79152662     1.04300
C1329       C  0.06292343  0.64441250  0.78884151     0.93200
C1330       C  0.15553074  0.69271818  0.81629514     0.92300
C1331       C  0.09782807  0.69861084  0.81796502     0.84500
C1332       C  0.12062665  0.63842582  0.78735239     0.90700
C1333       C  0.21321061  0.55957274  0.64944356    -0.17900
C1334       C  0.21691790  0.56040853  0.63266133    -0.20100
C1335       C  0.21279068  0.57660658  0.62277897     0.20600
C1336       C  0.20487893  0.59213212  0.62987236    -0.03000
C1337       C  0.20115323  0.59130118  0.64679968    -0.06000
C1338       C  0.20528908  0.57489900  0.65660583     0.20900
C1339       C  0.19313275  0.60674456  0.65388198     0.19000
C1340       C  0.18899093  0.62293101  0.64399955    -0.17500
C1341       C  0.19268940  0.62375946  0.62721946    -0.19800
C1342       C  0.20062258  0.60844132  0.62006078     0.20500
C1343       C  0.20442713  0.60922740  0.60326655    -0.32800
C1344       C  0.21259309  0.59403915  0.59607533     0.01200
C1345       C  0.21657687  0.57764603  0.60595005    -0.24100
C1346       C  0.20108883  0.57381298  0.67337222    -0.28700
C1347       C  0.19250076  0.58867538  0.68051321     0.06900
C1348       C  0.18896022  0.60540880  0.67067594    -0.27300
H1349       H  0.21643345  0.54684641  0.65681776     0.11600
H1350       H  0.22300252  0.54836600  0.62740840     0.12700
H1351       H  0.18278243  0.63487910  0.64924263     0.09100
H1352       H  0.18933657  0.63638446  0.61983570     0.11100
H1353       H  0.20092454  0.62169122  0.59585785     0.16400
H1354       H  0.22298023  0.56592654  0.60064915     0.12400
H1355       H  0.20430418  0.56114157  0.68078792     0.15200
H1356       H  0.18226450  0.61690697  0.67594240     0.15000
C1357       C  0.33709156  0.86656700  0.29167709    -0.17900
C1358       C  0.33304461  0.86511458  0.30844866    -0.20100
C1359       C  0.33468025  0.88595288  0.31670938     0.20600
C1360       C  0.34014148  0.90834388  0.30798191    -0.03000
C1361       C  0.34419136  0.90979313  0.29106758    -0.06000
C1362       C  0.34282824  0.88887639  0.28290283     0.20900
C1363       C  0.34989704  0.93229126  0.28237431     0.19000
C1364       C  0.35127698  0.95302294  0.29060322    -0.17500
C1365       C  0.34726342  0.95158676  0.30736942    -0.19800
C1366       C  0.34178873  0.92938827  0.31616340     0.20500
C1367       C  0.33811893  0.92796777  0.33300602    -0.32800
C1368       C  0.33284077  0.90578978  0.34182945     0.01200
C1369       C  0.33106197  0.88482098  0.33354921    -0.24100
C1370       C  0.34758031  0.89077699  0.26615610    -0.28700
C1371       C  0.35380700  0.91337745  0.25744620     0.06900
C1372       C  0.35456943  0.93389261  0.26565160    -0.27300
H1373       H  0.33592528  0.85031382  0.28558693     0.11600
H1374       H  0.32879715  0.84775417  0.31497603     0.12700
H1375       H  0.35563921  0.47043325  0.28408754     0.11800
H1376       H  0.34856865  0.46789908  0.31347094     0.11100
H1377       H  0.33975080  0.94433501  0.33921822     0.16400
H1378       H  0.32668609  0.86747893  0.34013326     0.12400
H1379       H  0.34658751  0.87469374  0.25997942     0.15200
H1380       H  0.35948010  0.95149530  0.25918675     0.15000
C1381       C  0.98724676  0.62096785  0.62594586    -0.17900
C1382       C  0.98841030  0.62051298  0.64288823    -0.20100
C1383       C  0.46661563  0.60153095  0.65189766     0.20600
C1384       C  0.44342005  0.58287196  0.64376744    -0.03000
C1385       C  0.44224447  0.58333304  0.62668203    -0.06000
C1386       C  0.46426438  0.60246341  0.61774406     0.20900
C1387       C  0.41904548  0.56465517  0.61856343     0.19000
C1388       C  0.39723929  0.54569935  0.62756874    -0.17500
C1389       C  0.39840974  0.54523402  0.64450030    -0.19800
C1390       C  0.42140327  0.56371472  0.65269162     0.20500
C1391       C  0.42274113  0.56326243  0.66964827    -0.32800
C1392       C  0.44586081  0.58162846  0.67789769     0.01200
C1393       C  0.46768638  0.60080366  0.66887920    -0.24100
C1394       C  0.46291916  0.60283131  0.60076910    -0.28700
C1395       C  0.43977740  0.58441380  0.59254561     0.06900
C1396       C  0.41796713  0.56530563  0.60159061    -0.27300
H1397       H  0.00433247  0.63581133  0.61925479     0.11600
H1398       H  0.00637883  0.63498810  0.64894351     0.12700
H1399       H  0.37926986  0.03122834  0.62151713     0.11800
H1400       H  0.38132778  0.03038634  0.65118952     0.11100
H1401       H  0.40567435  0.54852270  0.67632054     0.16400
H1402       H  0.48565124  0.61505472  0.67495812     0.12400
H1403       H  0.47997270  0.61751765  0.59404947     0.15200
H1404       H  0.39997289  0.55106708  0.59553640     0.15000
C1405       C  0.49274342  0.85569337  0.62405342    -0.17900
C1406       C  0.49468522  0.86057914  0.64073063    -0.20100
C1407       C  0.47334042  0.85739717  0.64935593     0.20600
C1408       C  0.44992148  0.84954706  0.64106385    -0.03000
C1409       C  0.44796733  0.84462974  0.62423182    -0.06000
C1410       C  0.46942507  0.84754122  0.61571757     0.20900
C1411       C  0.42446297  0.83654345  0.61597411     0.19000
C1412       C  0.40320508  0.83361357  0.62456510    -0.17500
C1413       C  0.40514494  0.83849209  0.64123832    -0.19800
C1414       C  0.42837429  0.84638537  0.64960300     0.20500
C1415       C  0.43034324  0.85095910  0.66636793    -0.32800
C1416       C  0.45352694  0.85851930  0.67477768     0.01200
C1417       C  0.47497521  0.86179032  0.66613269    -0.24100
C1418       C  0.46709747  0.84197156  0.59907078    -0.28700
C1419       C  0.44360517  0.83355779  0.59078323     0.06900
C1420       C  0.42247882  0.83117974  0.59932314    -0.27300
H1421       H  0.00943306  0.85810228  0.61769519     0.11600
H1422       H  0.01283841  0.86668000  0.64690657     0.12700
H1423       H  0.38501273  0.82740645  0.61840197     0.11800
H1424       H  0.38841452  0.83597231  0.64760994     0.11100
H1425       H  0.41361691  0.84817773  0.67287989     0.16400
H1426       H  0.49305975  0.86793284  0.67239716     0.12400
H1427       H  0.98360398  0.84417629  0.59259554     0.15200
H1428       H  0.40420126  0.82451481  0.59315174     0.15000
C1429       C  0.13339501  0.64289399  0.29823824    -0.17900
C1430       C  0.13488337  0.64716219  0.31497668    -0.20100
C1431       C  0.12032475  0.65593729  0.32223564     0.20600
C1432       C  0.10403698  0.66036618  0.31254388    -0.03000
C1433       C  0.10253700  0.65606172  0.29564821    -0.06000
C1434       C  0.11731567  0.64731994  0.28847114     0.20900
C1435       C  0.08630857  0.66056613  0.28595321     0.19000
C1436       C  0.07172584  0.66931487  0.29321102    -0.17500
C1437       C  0.07322374  0.67359337  0.30994671    -0.19800
C1438       C  0.08933003  0.66919564  0.31970882     0.20500
C1439       C  0.09115086  0.67371733  0.33647392    -0.32800
C1440       C  0.10758066  0.66964713  0.34624911     0.01200
C1441       C  0.12193247  0.66052651  0.33898883    -0.24100
C1442       C  0.11574004  0.64310116  0.27167213    -0.28700
C1443       C  0.09954679  0.64746807  0.26188031     0.06900
C1444       C  0.08493810  0.65627131  0.26917709    -0.27300
H1445       H  0.14486070  0.63615806  0.29292591     0.11600
H1446       H  0.14749727  0.64366636  0.32224468     0.12700
H1447       H  0.05916617  0.67287505  0.28593797     0.11800
H1448       H  0.06181712  0.68040208  0.31525131     0.11100
H1449       H  0.08006015  0.68085199  0.34177501     0.16400
H1450       H  0.13445500  0.65701153  0.34630653     0.12400
H1451       H  0.12696976  0.63615555  0.26632372     0.15200
H1452       H  0.07256784  0.65998843  0.26185335     0.15000
C1453       C  0.06650159  0.87255011  0.29446048    -0.17900
C1454       C  0.06785770  0.87177086  0.31137271    -0.20100
C1455       C  0.08805339  0.89331366  0.31985268     0.20600
C1456       C  0.10708430  0.91583658  0.31122741    -0.03000
C1457       C  0.10571827  0.91661945  0.29416237    -0.06000
C1458       C  0.08532596  0.89486937  0.28575600     0.20900
C1459       C  0.12473385  0.93914982  0.28553190     0.19000
C1460       C  0.14493096  0.96069080  0.29401349    -0.17500
C1461       C  0.14628800  0.95990569  0.31093063    -0.19800
C1462       C  0.12745961  0.93758788  0.31964152     0.20500
C1463       C  0.12862447  0.93668420  0.33660819    -0.32800
C1464       C  0.10970127  0.91430455  0.34534972     0.01200
C1465       C  0.08949540  0.89268792  0.33680314    -0.24100
C1466       C  0.08410460  0.89578663  0.26880274    -0.28700
C1467       C  0.10295815  0.91818995  0.26006603     0.06900
C1468       C  0.12322812  0.93979531  0.26858047    -0.27300
H1469       H  0.05069797  0.85566693  0.28817930     0.11600
H1470       H  0.05308693  0.85431706  0.31782710     0.12700
H1471       H  0.15968486  0.97814903  0.28755975     0.11800
H1472       H  0.16208371  0.97679906  0.31721354     0.11100
H1473       H  0.14427305  0.95357250  0.34293317     0.16400
H1474       H  0.07482612  0.87521733  0.34323867     0.12400
H1475       H  0.06846768  0.87889133  0.26247623     0.15200
H1476       H  0.13780126  0.95728390  0.26211960     0.15000
C1477       C  0.01174817  0.78426366  0.97435502    -0.17900
C1478       C  0.01719114  0.78637196  0.95772937    -0.20100
C1479       C  0.01931839  0.76732089  0.94987401     0.20600
C1480       C  0.01583896  0.74590083  0.95883367    -0.03000
C1481       C  0.01035249  0.74377713  0.97560861    -0.06000
C1482       C  0.00832918  0.76306336  0.98340495     0.20900
C1483       C  0.50696475  0.72239509  0.98456650     0.19000
C1484       C  0.50899236  0.70329416  0.97670671    -0.17500
C1485       C  0.51443207  0.70540242  0.96009208    -0.19800
C1486       C  0.51794200  0.72665066  0.95106159     0.20500
C1487       C  0.52367835  0.72903156  0.93442793    -0.32800
C1488       C  0.02749247  0.75049209  0.92538585     0.01200
C1489       C  0.02507100  0.76945655  0.93325189    -0.24100
C1490       C  0.00298211  0.76085716  0.00010436    -0.28700
C1491       C  0.99959068  0.73958406  0.00916744     0.06900
C1492       C  0.50160353  0.72043539  0.00122405    -0.27300
H1493       H  0.01025395  0.79924795  0.98014006     0.11600
H1494       H  0.01981060  0.80295555  0.95102184     0.12700
H1495       H  0.50641847  0.68673195  0.98341952     0.11800
H1496       H  0.51597202  0.69044093  0.95431412     0.11100
H1497       H  0.52522525  0.71412898  0.92861866     0.16400
H1498       H  0.02796047  0.78614434  0.92658121     0.12400
H1499       H  0.00165982  0.77585373  0.00598666     0.15200
H1500       H  0.49885557  0.70380285  0.00789802     0.15000
C1501       C  0.31392707  0.50085220  0.97939540    -0.17900
C1502       C  0.31201311  0.49614841  0.96270418    -0.20100
C1503       C  0.28897705  0.48885072  0.95429681     0.20600
C1504       C  0.26766839  0.98629657  0.96278098    -0.03000
C1505       C  0.26959027  0.99102016  0.97962589    -0.06000
C1506       C  0.29283101  0.99832687  0.98795535     0.20900
C1507       C  0.24829930  0.98851144  0.98810402     0.19000
C1508       C  0.22527604  0.98125243  0.97969431    -0.17500
C1509       C  0.22337336  0.97657805  0.96299943    -0.19800
C1510       C  0.24445776  0.97907079  0.95444239     0.20500
C1511       C  0.24271080  0.97444878  0.93770286    -0.32800
C1512       C  0.26386118  0.47693677  0.92912146     0.01200
C1513       C  0.28692627  0.48413501  0.93755688    -0.24100
C1514       C  0.29466832  0.00318020  0.00466722    -0.28700
C1515       C  0.27360750  0.00093361  0.01321606     0.06900
C1516       C  0.25042795  0.99342954  0.00481764    -0.27300
H1517       H  0.33193166  0.50649404  0.98560983     0.11600
H1518       H  0.32857214  0.49823276  0.95636541     0.12700
H1519       H  0.20874925  0.97924582  0.98602413     0.11800
H1520       H  0.20540413  0.97103592  0.95677326     0.11100
H1521       H  0.22471960  0.96867354  0.93144408     0.16400
H1522       H  0.30346383  0.48638213  0.93111754     0.12400
H1523       H  0.31273330  0.00916054  0.01088985     0.15200
H1524       H  0.23395404  0.99134714  0.01124100     0.15000
C1525       C  0.32283193  0.78341580  0.97658172    -0.17900
C1526       C  0.32225193  0.78468408  0.95964855    -0.20100
C1527       C  0.29881605  0.76838523  0.95116784     0.20600
C1528       C  0.27571318  0.75074309  0.95983566    -0.03000
C1529       C  0.27629310  0.74948068  0.97691492    -0.06000
C1530       C  0.29998829  0.76583991  0.98530692     0.20900
C1531       C  0.25320870  0.73174863  0.98556946     0.19000
C1532       C  0.22972457  0.71561812  0.97710521    -0.17500
C1533       C  0.22914949  0.71687250  0.96017766    -0.19800
C1534       C  0.25204443  0.73427798  0.95144588     0.20500
C1535       C  0.25164660  0.73549641  0.93447760    -0.32800
C1536       C  0.27458425  0.75299136  0.92570535     0.01200
C1537       C  0.29810288  0.76938713  0.93418147    -0.24100
C1538       C  0.30048892  0.76418012  0.00225537    -0.28700
C1539       C  0.27762534  0.74633976  0.01098196     0.06900
C1540       C  0.25402086  0.73031927  0.00251976    -0.27300
H1541       H  0.34120079  0.79613980  0.98286059     0.11600
H1542       H  0.34015962  0.79836885  0.95317700     0.12700
H1543       H  0.21181510  0.70193554  0.98357644     0.11800
H1544       H  0.21078562  0.70414220  0.95390139     0.11100
H1545       H  0.23329555  0.72296427  0.92818196     0.16400
H1546       H  0.31595626  0.78282438  0.92760451     0.12400
H1547       H  0.31887960  0.77652936  0.00856285     0.15200
H1548       H  0.23620154  0.71672845  0.00907343     0.15000
N1549       N  0.74121701  0.18467033  0.09603874    -0.27400
N1550       N  0.75448905  0.19454989  0.10964767    -0.35200
C1551       C  0.74546251  0.17567072  0.12095541     0.01000
C1552       C  0.72549573  0.15277434  0.11416375     0.07000
C1553       C  0.72307685  0.15907501  0.09839144    -0.06100
H1554       H  0.75383813  0.17817087  0.13292443     0.07700
H1555       H  0.71031216  0.14577634  0.08904615     0.08900
Cu1556     Cu  0.78720838  0.23148929  0.11178773     0.44200
Cu1557     Cu  0.75159599  0.20550126  0.07440455     0.42000
Cu1558     Cu  0.81456909  0.26779702  0.07491038     0.43900
N1559       N  0.82388425  0.26481655  0.11030953    -0.34700
N1560       N  0.83418170  0.27828499  0.09675488    -0.29000
C1561       C  0.85953107  0.29677616  0.09933001    -0.05100
C1562       C  0.86530795  0.29441431  0.11520627     0.07100
C1563       C  0.84232343  0.27410061  0.12185447     0.00900
H1564       H  0.87309246  0.30967702  0.09004980     0.08600
H1565       H  0.83955484  0.26561135  0.13384182     0.07600
N1566       N  0.79202026  0.25160301  0.05438094    -0.36200
N1567       N  0.76905849  0.22908024  0.05413781    -0.28400
C1568       C  0.76018288  0.22391428  0.03879212    -0.03600
C1569       C  0.77849826  0.24416048  0.02886125     0.05000
C1570       C  0.79840453  0.26135431  0.03924173     0.03100
H1571       H  0.74207554  0.20628524  0.03515358     0.08200
H1572       H  0.81639990  0.27957781  0.03611863     0.07000
N1573       N  0.80870695  0.31401546  0.84060918    -0.27400
N1574       N  0.79433610  0.30443803  0.82734585    -0.35200
C1575       C  0.80305018  0.32336593  0.81609197     0.01000
C1576       C  0.82389229  0.34600928  0.82256164     0.07000
C1577       C  0.82717551  0.33948177  0.83808656    -0.06100
H1578       H  0.79379381  0.32115368  0.80446183     0.07700
H1579       H  0.84077916  0.35258894  0.84720647     0.08900
Cu1580     Cu  0.76052674  0.26810518  0.82572439     0.44200
Cu1581     Cu  0.79955945  0.29305430  0.86216321     0.42000
Cu1582     Cu  0.73582513  0.23074032  0.86220604     0.43900
N1583       N  0.72343209  0.23540334  0.82772092    -0.34700
N1584       N  0.71394495  0.22142551  0.84118208    -0.29000
C1585       C  0.68831266  0.20325748  0.83907298    -0.05100
C1586       C  0.68156285  0.20633402  0.82358046     0.07100
C1587       C  0.70425790  0.22677285  0.81671238     0.00900
H1588       H  0.67535003  0.18980331  0.84837620     0.08600
H1589       H  0.70645647  0.23555635  0.80488059     0.07600
N1590       N  0.75980687  0.24659602  0.88231393    -0.36200
N1591       N  0.78281610  0.26910206  0.88237884    -0.28400
C1592       C  0.79199131  0.27446487  0.89766286    -0.03600
C1593       C  0.77381589  0.25443288  0.90776049     0.05000
C1594       C  0.75374022  0.23706858  0.89751819     0.03100
H1595       H  0.81001801  0.29228145  0.90118604     0.08200
H1596       H  0.73561250  0.21910941  0.90082184     0.07000
O1597       O  0.73464470  0.24295573  0.46987054    -0.73000
O1598       O  0.80553435  0.27209249  0.48953975    -0.74000
O1599       O  0.78269050  0.29196071  0.46920808    -0.62600
O1600       O  0.75733231  0.22306804  0.49044927    -0.71000
O1601       O  0.76912175  0.21060757  0.46871758    -0.70600
O1602       O  0.79459911  0.27975274  0.44741250    -0.61800
O1603       O  0.81716186  0.25956206  0.46776763    -0.74300
O1604       O  0.74654405  0.23053538  0.44817419    -0.73100
Cu1605     Cu  0.76961499  0.25794189  0.48053220     1.04600
Cu1606     Cu  0.78227406  0.24468161  0.45725708     1.04300
C1607       C  0.72958894  0.23248249  0.45583797     0.93200
C1608       C  0.82240045  0.27009545  0.48176326     0.92300
C1609       C  0.79237072  0.29662761  0.45493684     0.84500
C1610       C  0.75954871  0.20613319  0.48302987     0.90700
O1611       O  0.56706061  0.40969313  0.80256870    -0.73000
O1612       O  0.63660008  0.43702235  0.82359491    -0.74000
O1613       O  0.61552801  0.45845501  0.80296442    -0.62600
O1614       O  0.58804154  0.38840767  0.82323765    -0.71000
O1615       O  0.60091731  0.37686048  0.80158339    -0.70600
O1616       O  0.62826653  0.44688506  0.78126012    -0.61800
O1617       O  0.64927642  0.42548100  0.80184847    -0.74300
O1618       O  0.57983009  0.39805981  0.78091008    -0.73100
Cu1619     Cu  0.60135288  0.42382252  0.81384965     1.04600
Cu1620     Cu  0.61502057  0.41141463  0.79064439     1.04300
C1621       C  0.56260336  0.39980906  0.78838845     0.93200
C1622       C  0.65375053  0.43517059  0.81607380     0.92300
C1623       C  0.62598744  0.46362724  0.78889363     0.84500
C1624       C  0.59043279  0.37171703  0.81564702     0.90700
N1625       N  0.75189112  0.54805720  0.09388396    -0.27400
N1626       N  0.76750198  0.55640704  0.10667545    -0.35200
C1627       C  0.75871860  0.56600702  0.11760046     0.01000
C1628       C  0.73645402  0.56351183  0.11142843     0.07000
C1629       C  0.73259361  0.55204123  0.09638058    -0.06100
H1630       H  0.76766482  0.57380629  0.12928887     0.07700
H1631       H  0.71684441  0.54676278  0.08794908     0.08900
Cu1632     Cu  0.79976407  0.55417653  0.10916892     0.44200
Cu1633     Cu  0.75786978  0.53183677  0.07373776     0.42000
Cu1634     Cu  0.81545229  0.52791875  0.07599715     0.43900
N1635       N  0.83222462  0.55203742  0.10895288    -0.34700
N1636       N  0.83823900  0.54251853  0.09666862    -0.29000
C1637       C  0.86138923  0.54555691  0.09968168    -0.05100
C1638       C  0.87020176  0.55750672  0.11460433     0.07100
C1639       C  0.85123919  0.56128275  0.12016676     0.00900
H1640       H  0.87137935  0.54017606  0.09142191     0.08600
H1641       H  0.85164981  0.07088482  0.13124877     0.07600
N1642       N  0.79148062  0.51769700  0.05585814    -0.36200
N1643       N  0.77066272  0.51906486  0.05500072    -0.28400
C1644       C  0.76070676  0.51263920  0.03992702    -0.03600
C1645       C  0.77605419  0.50705665  0.03077806     0.05000
C1646       C  0.79533660  0.51041706  0.04136802     0.03100
H1647       H  0.74414396  0.51310792  0.03582597     0.08200
H1648       H  0.81141747  0.50832617  0.03874418     0.07000
N1649       N  0.79266447  0.44485803  0.84491259    -0.27400
N1650       N  0.77882282  0.43968494  0.83146197    -0.35200
C1651       C  0.78879175  0.43221634  0.81989370     0.01000
C1652       C  0.81003844  0.43289911  0.82633223     0.07000
C1653       C  0.81202641  0.44104447  0.84219724    -0.06100
H1654       H  0.78135179  0.42708518  0.80763036     0.07700
H1655       H  0.82642828  0.44395788  0.85111019     0.08900
Cu1656     Cu  0.74734562  0.44337184  0.82912776     0.44200
Cu1657     Cu  0.78405642  0.95614225  0.86639158     0.42000
Cu1658     Cu  0.72732555  0.96093985  0.86498499     0.43900
N1659       N  0.71558378  0.44677487  0.82982802    -0.34700
N1660       N  0.70812660  0.45319217  0.84300155    -0.29000
C1661       C  0.68556426  0.45136257  0.83990686    -0.05100
C1662       C  0.67854911  0.44333863  0.82402871     0.07100
C1663       C  0.69802607  0.44069807  0.81798060     0.00900
H1664       H  0.67441089  0.45424482  0.84880786     0.08600
H1665       H  0.69866687  0.43350723  0.80614796     0.07600
N1666       N  0.74844293  0.96580328  0.88582262    -0.36200
N1667       N  0.76917037  0.96427121  0.88639062    -0.28400
C1668       C  0.77791931  0.96805356  0.90176755    -0.03600
C1669       C  0.76187646  0.97211677  0.91138822     0.05000
C1670       C  0.74340533  0.97052634  0.90078377     0.03100
H1671       H  0.79449109  0.96742016  0.90562287     0.08200
H1672       H  0.72746452  0.97274929  0.90361234     0.07000
N1673       N  0.46385189  0.26558747  0.09336758    -0.27400
N1674       N  0.45992415  0.25239016  0.10701667    -0.35200
C1675       C  0.45323926  0.26268064  0.11881913     0.01000
C1676       C  0.45322617  0.28351794  0.11232861     0.07000
C1677       C  0.46005445  0.28489672  0.09619449    -0.06100
H1678       H  0.94911559  0.25573400  0.13124941     0.07700
H1679       H  0.46203431  0.29881841  0.08716548     0.08900
Cu1680     Cu  0.46456016  0.22164706  0.10946176     0.44200
Cu1681     Cu  0.47396380  0.25670649  0.07151122     0.42000
Cu1682     Cu  0.48287692  0.20287266  0.07344909     0.43900
N1683       N  0.46943670  0.19095457  0.10875455    -0.34700
N1684       N  0.47602085  0.18382868  0.09551094    -0.29000
C1685       C  0.47486009  0.16160226  0.09862011    -0.05100
C1686       C  0.46711132  0.15450310  0.11458178     0.07100
C1687       C  0.46394894  0.17357010  0.12065957     0.00900
H1688       H  0.47782900  0.15061649  0.08966208     0.08600
H1689       H  0.95658411  0.17390955  0.13251659     0.07600
N1690       N  0.48722779  0.22366293  0.05247559    -0.36200
N1691       N  0.48391770  0.24324088  0.05162151    -0.28400
C1692       C  0.48786581  0.25205601  0.03620749    -0.03600
C1693       C  0.49395214  0.23725989  0.02686096     0.05000
C1694       C  0.49335486  0.21947602  0.03770067     0.03100
H1695       H  0.48612720  0.26789634  0.03217212     0.08200
H1696       H  0.49711176  0.20450016  0.03518557     0.07000
N1697       N  0.57581611  0.23046066  0.84407392    -0.27400
N1698       N  0.58308253  0.24554525  0.83099355    -0.35200
C1699       C  0.59237687  0.23675239  0.81986217     0.01000
C1700       C  0.59080023  0.21501759  0.82619908     0.07000
C1701       C  0.58019435  0.21147086  0.84154689    -0.06100
H1702       H  0.59941917  0.24538025  0.80796303     0.07700
H1703       H  0.57587201  0.19619657  0.85019919     0.08900
Cu1704     Cu  0.58002871  0.27717555  0.82837150     0.44200
Cu1705     Cu  0.56053129  0.23656991  0.86472360     0.42000
Cu1706     Cu  0.55501273  0.29261166  0.86243371     0.43900
N1707       N  0.57703885  0.30898073  0.82885443    -0.34700
N1708       N  0.56806740  0.31496995  0.84146219    -0.29000
C1709       C  0.57061701  0.33790835  0.83851850    -0.05100
C1710       C  0.58167821  0.34657302  0.82330759     0.07100
C1711       C  0.58544530  0.32777936  0.81750394     0.00900
H1712       H  0.56569014  0.34794055  0.84704342     0.08600
H1713       H  0.59464634  0.32824838  0.80619375     0.07600
N1714       N  0.54538466  0.26902883  0.88276137    -0.36200
N1715       N  0.54748074  0.24868565  0.88372933    -0.28400
C1716       C  0.54099209  0.23862345  0.89883382    -0.03600
C1717       C  0.53450897  0.25339088  0.90787885     0.05000
C1718       C  0.53750402  0.27245968  0.89716150     0.03100
H1719       H  0.54169509  0.22219395  0.90294156     0.08200
H1720       H  0.53471144  0.28811285  0.89959410     0.07000
O1721       O  0.96095799  0.11270530  0.11484087    -0.73000
O1722       O  0.93314324  0.04267775  0.13529812    -0.74000
O1723       O  0.91224931  0.06418366  0.11480958    -0.62600
O1724       O  0.98189336  0.09110604  0.13542315    -0.71000
O1725       O  0.96955002  0.10277804  0.15726659    -0.70600
O1726       O  0.90020413  0.07667705  0.13640247    -0.61800
O1727       O  0.92044285  0.05444947  0.15692430    -0.74300
O1728       O  0.94910828  0.12484295  0.13670001    -0.73100
Cu1729     Cu  0.94753391  0.07726919  0.12434265     1.04600
Cu1730     Cu  0.93442906  0.09014176  0.14759308     1.04300
C1731       C  0.95900810  0.12965085  0.12247484     0.93200
C1732       C  0.92242143  0.03751857  0.14928611     0.92300
C1733       C  0.89534434  0.06641198  0.12232501     0.84500
C1734       C  0.98654980  0.10081208  0.14965589     0.90700
N1735       N  0.66955311  0.44944876  0.43055531    -0.27400
N1736       N  0.65980955  0.43539896  0.44398342    -0.35200
C1737       C  0.67868966  0.44431205  0.45523333     0.01000
C1738       C  0.70146594  0.96498114  0.44858420     0.07000
C1739       C  0.69503934  0.96791152  0.43295341    -0.06100
H1740       H  0.67636024  0.43532268  0.46700776     0.07700
H1741       H  0.70824544  0.98123670  0.42368770     0.08900
Cu1742     Cu  0.62317121  0.40174732  0.44569463     0.44200
Cu1743     Cu  0.64868887  0.43962202  0.40901845     0.42000
Cu1744     Cu  0.58570625  0.37631824  0.40928722     0.43900
N1745       N  0.59032604  0.36459220  0.44401042    -0.34700
N1746       N  0.57632547  0.35492713  0.43063079    -0.29000
C1747       C  0.55838303  0.32925884  0.43291123    -0.05100
C1748       C  0.56162915  0.32262199  0.44841214     0.07100
C1749       C  0.58191309  0.34546599  0.45512443     0.00900
H1750       H  0.04513117  0.31614997  0.42366202     0.08600
H1751       H  0.59088697  0.34776265  0.46686991     0.07600
N1752       N  0.60247503  0.39976898  0.38892629    -0.36200
N1753       N  0.62521993  0.42253964  0.38876740    -0.28400
C1754       C  0.63107485  0.43145488  0.37340674    -0.03600
C1755       C  0.61108476  0.41340086  0.36332556     0.05000
C1756       C  0.59326852  0.39361757  0.37369868     0.03100
H1757       H  0.64905547  0.44940551  0.36989858     0.08200
H1758       H  0.57515880  0.37564437  0.37051523     0.07000
N1759       N  0.54136541  0.38489238  0.17541492    -0.27400
N1760       N  0.55132373  0.39838941  0.16182316    -0.35200
C1761       C  0.53247073  0.38948722  0.15056325     0.01000
C1762       C  0.00954830  0.36933915  0.15738734     0.07000
C1763       C  0.01578906  0.36676331  0.17312314    -0.06100
H1764       H  0.53506452  0.39784302  0.13854983     0.07700
H1765       H  0.00251375  0.35366046  0.18244265     0.08900
Cu1766     Cu  0.58872450  0.43059271  0.15963578     0.44200
Cu1767     Cu  0.56230647  0.39433375  0.19683744     0.42000
Cu1768     Cu  0.62693440  0.45517967  0.19592626     0.43900
N1769       N  0.62294573  0.46663078  0.16106676    -0.34700
N1770       N  0.63713274  0.47608150  0.17439568    -0.29000
C1771       C  0.65580086  0.00150546  0.17197261    -0.05100
C1772       C  0.65280555  0.00817025  0.15643296     0.07100
C1773       C  0.63197249  0.48562336  0.14983883     0.00900
H1774       H  0.66922068  0.01452523  0.18119220     0.08600
H1775       H  0.62286643  0.48357447  0.13817257     0.07600
N1776       N  0.60986177  0.43249094  0.21649373    -0.36200
N1777       N  0.58643488  0.41050327  0.21685551    -0.28400
C1778       C  0.58058987  0.40176376  0.23224056    -0.03600
C1779       C  0.60132062  0.41913042  0.24212760     0.05000
C1780       C  0.61955091  0.43832943  0.23162787     0.03100
H1781       H  0.56214216  0.38448024  0.23591089     0.08200
H1782       H  0.63830751  0.45566035  0.23467269     0.07000
N1783       N  0.58840262  0.21793376  0.42733982    -0.27400
N1784       N  0.60369875  0.22568270  0.44026032    -0.35200
C1785       C  0.59487532  0.23510535  0.45128998     0.01000
C1786       C  0.57288994  0.23311406  0.44503339     0.07000
C1787       C  0.56925168  0.22212347  0.42983877    -0.06100
H1788       H  0.60355242  0.24237267  0.46310857     0.07700
H1789       H  0.55371464  0.21725510  0.42132293     0.08900
Cu1790     Cu  0.63534396  0.22249844  0.44263277     0.44200
Cu1791     Cu  0.59456048  0.20196196  0.40713476     0.42000
Cu1792     Cu  0.65029701  0.19548057  0.40908711     0.43900
N1793       N  0.66684079  0.21885867  0.44238280    -0.34700
N1794       N  0.67268706  0.20924324  0.43005945    -0.29000
C1795       C  0.69555292  0.21170312  0.43319378    -0.05100
C1796       C  0.70430398  0.22333482  0.44822290     0.07100
C1797       C  0.68561813  0.22753391  0.45371389     0.00900
H1798       H  0.70552794  0.20636479  0.42488952     0.08600
H1799       H  0.68620635  0.23730226  0.46476130     0.07600
N1800       N  0.62628564  0.18587092  0.38892950    -0.36200
N1801       N  0.60610310  0.18828218  0.38822077    -0.28400
C1802       C  0.59587427  0.18216629  0.37320147    -0.03600
C1803       C  0.61035437  0.17565324  0.36388311     0.05000
C1804       C  0.62942717  0.17815908  0.37437187     0.03100
H1805       H  0.57949091  0.18311080  0.36934363     0.08200
H1806       H  0.64519442  0.17567595  0.37154276     0.07000
N1807       N  0.62571098  0.11104244  0.17817333    -0.27400
N1808       N  0.61156644  0.10555475  0.16483234    -0.35200
C1809       C  0.62083634  0.09720586  0.15336865     0.01000
C1810       C  0.64193311  0.09759462  0.15975455     0.07000
C1811       C  0.64459060  0.10652009  0.17548066    -0.06100
H1812       H  0.61297692  0.09160750  0.14122084     0.07700
H1813       H  0.65910484  0.10946709  0.18431262     0.08900
Cu1814     Cu  0.58046027  0.10967024  0.16246197     0.44200
Cu1815     Cu  0.61811937  0.12369782  0.19947422     0.42000
Cu1816     Cu  0.56201741  0.12932054  0.19786339     0.43900
N1817       N  0.54869371  0.11290933  0.16313307    -0.34700
N1818       N  0.54168538  0.12000761  0.17619702    -0.29000
C1819       C  0.51896708  0.11791022  0.17320432    -0.05100
C1820       C  0.51143095  0.10902638  0.15750207     0.07100
C1821       C  0.53073326  0.10613689  0.15145450     0.00900
H1822       H  0.50815699  0.12137060  0.18204364     0.08600
H1823       H  0.53105559  0.09842370  0.13974368     0.07600
N1824       N  0.58384052  0.13549332  0.21859748    -0.36200
N1825       N  0.60425621  0.13346320  0.21927236    -0.28400
C1826       C  0.61321051  0.13767966  0.23461782    -0.03600
C1827       C  0.59765263  0.14259917  0.24412082     0.05000
C1828       C  0.57925637  0.14105241  0.23344684     0.03100
H1829       H  0.62971469  0.13695885  0.23849885     0.08200
H1830       H  0.56321850  0.14313029  0.23623273     0.07000
O1831       O  0.65740979  0.03726603  0.13574803    -0.73000
O1832       O  0.69269411  0.10747560  0.11455377    -0.74000
O1833       O  0.69831516  0.06458467  0.11315202    -0.62600
O1834       O  0.65175421  0.08035466  0.13730311    -0.71000
O1835       O  0.67988212  0.09630539  0.15785550    -0.70600
O1836       O  0.72663993  0.08113753  0.13358895    -0.61800
O1837       O  0.72071148  0.12397716  0.13516118    -0.74300
O1838       O  0.68569706  0.05353096  0.15622358    -0.73100
Cu1839     Cu  0.67399900  0.07181162  0.12449218     1.04600
Cu1840     Cu  0.70426856  0.08935689  0.14640835     1.04300
C1841       C  0.66602537  0.03422122  0.14914069     0.93200
C1842       C  0.71226514  0.12685799  0.12163855     0.92300
C1843       C  0.71974348  0.07019158  0.11970845     0.84500
C1844       C  0.65857005  0.09098627  0.15128568     0.90700
O1845       O  0.52913280  0.27716431  0.44841389    -0.73000
O1846       O  0.99342456  0.20625560  0.46894294    -0.74000
O1847       O  0.98778636  0.24930701  0.47076323    -0.62600
O1848       O  0.53481646  0.23426031  0.44668261    -0.71000
O1849       O  0.56276866  0.25031552  0.46732228    -0.70600
O1850       O  0.51560546  0.26516123  0.49147606    -0.61800
O1851       O  0.52124731  0.22222157  0.48965420    -0.74300
O1852       O  0.55693043  0.29331702  0.46913240    -0.73100
Cu1853     Cu  0.01028236  0.24115913  0.45799957     1.04600
Cu1854     Cu  0.54017259  0.25834535  0.48010946     1.04300
C1855       C  0.54856684  0.29647698  0.45565630     0.93200
C1856       C  0.00170432  0.20299279  0.48240786     0.92300
C1857       C  0.49438959  0.25986540  0.48476565     0.84500
C1858       C  0.55611037  0.23968304  0.45334119     0.90700
N1859       N  0.46213289  0.28191497  0.51056185    -0.27400
N1860       N  0.94756796  0.27518056  0.49732061    -0.35200
C1861       C  0.45641733  0.26566644  0.48637736     0.01000
C1862       C  0.47766589  0.26658735  0.49298096     0.07000
C1863       C  0.48084558  0.27701239  0.50831254    -0.06100
H1864       H  0.94834320  0.25917639  0.47434805     0.07700
H1865       H  0.49583589  0.28109048  0.51708245     0.08900
Cu1866     Cu  0.91683338  0.27972561  0.49410225     0.44200
Cu1867     Cu  0.95612004  0.29779343  0.53093228     0.42000
Cu1868     Cu  0.90211554  0.30631625  0.52788463     0.43900
N1869       N  0.88547408  0.28370086  0.49448208    -0.34700
N1870       N  0.87979459  0.29316565  0.50696883    -0.29000
C1871       C  0.85688489  0.29074402  0.50412807    -0.05100
C1872       C  0.84785526  0.27925441  0.48911580     0.07100
C1873       C  0.86646913  0.27512989  0.48331113     0.00900
H1874       H  0.84703394  0.29591727  0.51265151     0.08600
H1875       H  0.86561909  0.26538872  0.47219022     0.07600
N1876       N  0.92524639  0.31550753  0.54834002    -0.36200
N1877       N  0.94502992  0.31252654  0.54952399    -0.28400
C1878       C  0.95509335  0.31917646  0.56458289    -0.03600
C1879       C  0.94082430  0.32654010  0.57335952     0.05000
C1880       C  0.92209148  0.32398110  0.56259104     0.03100
H1881       H  0.47097238  0.31774749  0.56895952     0.08200
H1882       H  0.90694395  0.32758694  0.56493554     0.07000
N1883       N  0.92552600  0.39220131  0.75867381    -0.27400
N1884       N  0.93910200  0.39697552  0.77219253    -0.35200
C1885       C  0.92924791  0.40456095  0.78375771     0.01000
C1886       C  0.90829652  0.40434612  0.77725398     0.07000
C1887       C  0.90639512  0.39638080  0.76133848    -0.06100
H1888       H  0.93646303  0.40930242  0.79608351     0.07700
H1889       H  0.89213207  0.39370875  0.75239238     0.08900
Cu1890     Cu  0.96976748  0.39216676  0.77458739     0.44200
Cu1891     Cu  0.93416542  0.38050735  0.73735504     0.42000
Cu1892     Cu  0.98907685  0.37258211  0.73918278     0.43900
N1893       N  0.00085667  0.38781709  0.77425587    -0.34700
N1894       N  0.00814360  0.38073804  0.76130329    -0.29000
C1895       C  0.53063289  0.38253456  0.76462222    -0.05100
C1896       C  0.53774175  0.39124119  0.78039458     0.07100
C1897       C  0.01839157  0.39425815  0.78616361     0.00900
H1898       H  0.54174619  0.37927699  0.75590419     0.08600
H1899       H  0.01790750  0.40210350  0.79778903     0.07600
N1900       N  0.96833891  0.36841122  0.71821123    -0.36200
N1901       N  0.94831347  0.37108981  0.71753355    -0.28400
C1902       C  0.93981284  0.36776274  0.70211102    -0.03600
C1903       C  0.95531615  0.36288839  0.69255914     0.05000
C1904       C  0.97317921  0.36344040  0.70324868     0.03100
H1905       H  0.92389433  0.36942461  0.69814071     0.08200
H1906       H  0.98862925  0.36046413  0.70043702     0.07000
O1907       O  0.82833946  0.37498460  0.80176076    -0.73000
O1908       O  0.86214167  0.44576568  0.78133048    -0.74000
O1909       O  0.86942625  0.40404450  0.77927552    -0.62600
O1910       O  0.82101208  0.41695020  0.80372755    -0.71000
O1911       O  0.84890230  0.43314811  0.82439150    -0.70600
O1912       O  0.89733969  0.42021371  0.79992811    -0.61800
O1913       O  0.89000380  0.46212976  0.80202101    -0.74300
O1914       O  0.85626028  0.39145180  0.82241396    -0.73100
Cu1915     Cu  0.84420183  0.40980748  0.79081685     1.04600
Cu1916     Cu  0.87415528  0.42735532  0.81288943     1.04300
C1917       C  0.83689567  0.37202803  0.81521888     0.93200
C1918       C  0.88145414  0.46515338  0.78859350     0.92300
C1919       C  0.89093927  0.40992864  0.78583815     0.84500
C1920       C  0.82740905  0.42728602  0.81779795     0.90700
N1921       N  0.87895200  0.05125365  0.50749549    -0.27400
N1922       N  0.88891626  0.06484361  0.49392603    -0.35200
C1923       C  0.86998894  0.05608929  0.48270807     0.01000
C1924       C  0.84699047  0.53600565  0.48952910     0.07000
C1925       C  0.85331470  0.53325513  0.50521843    -0.06100
H1926       H  0.87249851  0.06476206  0.47080511     0.07700
H1927       H  0.83999017  0.52034581  0.51458411     0.08900
Cu1928     Cu  0.92609161  0.09779182  0.49192588     0.44200
Cu1929     Cu  0.89973755  0.06084156  0.52905144     0.42000
Cu1930     Cu  0.96283258  0.12317559  0.52877574     0.43900
N1931       N  0.95916169  0.13486212  0.49386136    -0.34700
N1932       N  0.47273520  0.14444944  0.50739958    -0.29000
C1933       C  0.49091153  0.17007729  0.50522192    -0.05100
C1934       C  0.48831023  0.17680803  0.48961468     0.07100
C1935       C  0.46811979  0.15404811  0.48273770     0.00900
H1936       H  0.50388610  0.18310319  0.51459749     0.08600
H1937       H  0.95957311  0.15187101  0.47085756     0.07600
N1938       N  0.94639817  0.09970009  0.54911537    -0.36200
N1939       N  0.92351305  0.07709474  0.54926337    -0.28400
C1940       C  0.91789711  0.06782732  0.56455634    -0.03600
C1941       C  0.93821220  0.08551489  0.57460029     0.05000
C1942       C  0.95594846  0.10544382  0.56428507     0.03100
H1943       H  0.89999635  0.04982897  0.56803118     0.08200
H1944       H  0.47405532  0.12337099  0.56752505     0.07000
N1945       N  0.91020014  0.52329173  0.76341983    -0.27400
N1946       N  0.92416770  0.03280714  0.77682828    -0.35200
C1947       C  0.91507059  0.51382666  0.78806434     0.01000
C1948       C  0.89443408  0.49123241  0.78139704     0.07000
C1949       C  0.89163374  0.49783596  0.76580008    -0.06100
H1950       H  0.92404387  0.51591987  0.79978523     0.07700
H1951       H  0.87845270  0.48475516  0.75651506     0.08900
Cu1952     Cu  0.95820934  0.06891368  0.77855156     0.44200
Cu1953     Cu  0.92039298  0.04401281  0.74183571     0.42000
Cu1954     Cu  0.48468430  0.10503036  0.74165523     0.43900
N1955       N  0.49539077  0.10150501  0.77674809    -0.34700
N1956       N  0.50541071  0.11504488  0.76318472    -0.29000
C1957       C  0.53092097  0.13331852  0.76556875    -0.05100
C1958       C  0.53706673  0.13074981  0.78133574     0.07100
C1959       C  0.51413040  0.11050556  0.78809244     0.00900
H1960       H  0.54426306  0.14639927  0.75626575     0.08600
H1961       H  0.51150139  0.10205813  0.80008099     0.07600
N1962       N  0.96142824  0.08884971  0.72128367    -0.36200
N1963       N  0.93808197  0.06677108  0.72140245    -0.28400
C1964       C  0.92884019  0.06104781  0.70617228    -0.03600
C1965       C  0.94725125  0.08046664  0.69584878     0.05000
C1966       C  0.96767228  0.09779354  0.70594850     0.03100
H1967       H  0.91035012  0.04355705  0.70294680     0.08200
H1968       H  0.48597732  0.11539999  0.70250907     0.07000
O1969       O  0.95308313  0.32204086  0.11411186    -0.73000
O1970       O  0.93750032  0.36900581  0.13753170    -0.74000
O1971       O  0.98073476  0.36364889  0.13623184    -0.62600
O1972       O  0.91036610  0.32754833  0.11551396    -0.71000
O1973       O  0.89399090  0.29962339  0.13630291    -0.70600
O1974       O  0.96438067  0.33603699  0.15716583    -0.61800
O1975       O  0.92115514  0.34110337  0.15831723    -0.74300
O1976       O  0.93725529  0.29433014  0.13500291    -0.73100
Cu1977     Cu  0.94605794  0.34658610  0.12514469     1.04600
Cu1978     Cu  0.92862208  0.31675750  0.14742750     1.04300
C1979       C  0.94757038  0.30075461  0.12087673     0.93200
C1980       C  0.92651170  0.36227758  0.15145439     0.92300
C1981       C  0.98367912  0.35562384  0.14990946     0.84500
C1982       C  0.89107482  0.30790857  0.12272023     0.90700
N1983       N  0.80075690  0.43477812  0.42571614    -0.27400
N1984       N  0.79603839  0.42119856  0.43928031    -0.35200
C1985       C  0.78868093  0.43118213  0.45088016     0.01000
C1986       C  0.78898176  0.95218244  0.44434523     0.07000
C1987       C  0.79678786  0.95402870  0.42838087    -0.06100
H1988       H  0.78388811  0.42392239  0.46323108     0.07700
H1989       H  0.79935814  0.96823242  0.41937755     0.08900
Cu1990     Cu  0.80019789  0.39007248  0.44171455     0.44200
Cu1991     Cu  0.81181331  0.42591382  0.40429437     0.42000
Cu1992     Cu  0.82100904  0.37190343  0.40646400     0.43900
N1993       N  0.80386828  0.35850610  0.44118433    -0.34700
N1994       N  0.81150796  0.35176387  0.42824441    -0.29000
C1995       C  0.80959861  0.32916394  0.43134223    -0.05100
C1996       C  0.80031365  0.32141199  0.44698729     0.07100
C1997       C  0.79696045  0.34046370  0.45289772     0.00900
H1998       H  0.81349439  0.31858445  0.42260172     0.08600
H1999       H  0.78889715  0.34057565  0.46454581     0.07600
N2000       N  0.82472233  0.39229173  0.38543980    -0.36200
N2001       N  0.82126221  0.41178304  0.38459774    -0.28400
C2002       C  0.82389352  0.41978415  0.36908281    -0.03600
C2003       C  0.82918379  0.40452263  0.35965267     0.05000
C2004       C  0.82959246  0.38732879  0.37050230     0.03100
H2005       H  0.82143469  0.43514962  0.36500042     0.08200
H2006       H  0.83297669  0.37213267  0.36782737     0.07000
N2007       N  0.90452474  0.39452900  0.17715285    -0.27400
N2008       N  0.91150211  0.40929933  0.16394469    -0.35200
C2009       C  0.92079323  0.40033844  0.15291423     0.01000
C2010       C  0.91949677  0.37884480  0.15948525     0.07000
C2011       C  0.90903760  0.37559836  0.17483473    -0.06100
H2012       H  0.92766253  0.40868567  0.14093618     0.07700
H2013       H  0.90489928  0.36056481  0.18363471     0.08900
Cu2014     Cu  0.90824160  0.44090052  0.16125541     0.44200
Cu2015     Cu  0.88929064  0.40085192  0.19764242     0.42000
Cu2016     Cu  0.88257406  0.45634008  0.19498260     0.43900
N2017       N  0.90628050  0.47342862  0.16186202    -0.34700
N2018       N  0.89710445  0.47941002  0.17436613    -0.29000
C2019       C  0.90069976  0.50288179  0.17165939    -0.05100
C2020       C  0.91270111  0.51195655  0.15671562     0.07100
C2021       C  0.91586496  0.49279459  0.15081154     0.00900
H2022       H  0.89581067  0.51295296  0.18017649     0.08600
H2023       H  0.92544700  0.49336547  0.13964764     0.07600
N2024       N  0.87209969  0.43210369  0.21502678    -0.36200
N2025       N  0.87470862  0.41208585  0.21613463    -0.28400
C2026       C  0.86776699  0.40175762  0.23114626    -0.03600
C2027       C  0.86052498  0.41605651  0.23996772     0.05000
C2028       C  0.86345280  0.43507067  0.22925772     0.03100
H2029       H  0.86902085  0.38573119  0.23544315     0.08200
H2030       H  0.86025140  0.45046753  0.23163695     0.07000
O2031       O  0.73054741  0.46946720  0.46928751    -0.73000
O2032       O  0.80146866  0.00356801  0.48951726    -0.74000
O2033       O  0.75935353  0.01024415  0.49180280    -0.62600
O2034       O  0.77291656  0.46276099  0.46703511    -0.71000
O2035       O  0.78901841  0.99088573  0.44636466    -0.70600
O2036       O  0.77561842  0.03849220  0.47119888    -0.61800
O2037       O  0.81792307  0.03169237  0.46885210    -0.74300
O2038       O  0.74694029  0.99768366  0.44866844    -0.73100
Cu2039     Cu  0.76545191  0.48547153  0.48010779     1.04600
Cu2040     Cu  0.78298358  0.01573345  0.45806829     1.04300
C2041       C  0.72752919  0.47811583  0.45587171     0.93200
C2042       C  0.82091396  0.02305072  0.48227900     0.92300
C2043       C  0.76526300  0.03184045  0.48530869     0.84500
C2044       C  0.78325695  0.46937186  0.45292420     0.90700
N2045       N  0.74759767  0.06617481  0.51262549    -0.27400
N2046       N  0.75340534  0.08047904  0.49928463    -0.35200
C2047       C  0.76098674  0.07070029  0.48769217     0.01000
C2048       C  0.75973670  0.04908858  0.49399295     0.07000
C2049       C  0.75115640  0.04668235  0.50982278    -0.06100
H2050       H  0.76656744  0.07852457  0.47549659     0.07700
H2051       H  0.74769159  0.03187903  0.51861947     0.08900
Cu2052     Cu  0.75040760  0.11228270  0.49706065     0.44200
Cu2053     Cu  0.73549216  0.07434552  0.53389821     0.42000
Cu2054     Cu  0.73143885  0.13182162  0.53218356     0.43900
N2055       N  0.74788644  0.14447695  0.49738244    -0.34700
N2056       N  0.74091803  0.15182120  0.51034578    -0.29000
C2057       C  0.74300057  0.17444748  0.50704293    -0.05100
C2058       C  0.75173497  0.18157482  0.49123545     0.07100
C2059       C  0.75459498  0.16215066  0.48545641     0.00900
H2060       H  0.73949533  0.18540804  0.51570915     0.08600
H2061       H  0.76205808  0.16145372  0.47371475     0.07600
N2062       N  0.72487631  0.10963373  0.55281914    -0.36200
N2063       N  0.72627859  0.08884260  0.55353716    -0.28400
C2064       C  0.72181127  0.07982410  0.56889927    -0.03600
C2065       C  0.71738656  0.09573549  0.57834127     0.05000
C2066       C  0.71950266  0.11440604  0.56764986     0.03100
H2067       H  0.72203882  0.06304617  0.57282511     0.08200
H2068       H  0.71795414  0.13076557  0.57039569     0.07000
N2069       N  0.64358253  0.10695746  0.76168813    -0.27400
N2070       N  0.63601425  0.09170359  0.77469584    -0.35200
C2071       C  0.62630440  0.10032074  0.78567622     0.01000
C2072       C  0.62791991  0.12208241  0.77927971     0.07000
C2073       C  0.63899517  0.12582704  0.76407782    -0.06100
H2074       H  0.61889414  0.09153530  0.79749862     0.07700
H2075       H  0.64349250  0.14115468  0.75542421     0.08900
Cu2076     Cu  0.63894745  0.05982708  0.77708885     0.44200
Cu2077     Cu  0.65943268  0.10114662  0.74129472     0.42000
Cu2078     Cu  0.66174802  0.04298543  0.74223063     0.43900
N2079       N  0.64060747  0.02710703  0.77608196    -0.34700
N2080       N  0.64864820  0.02063975  0.76321024    -0.29000
C2081       C  0.64548041  0.99736903  0.76595824    -0.05100
C2082       C  0.63492995  0.98890339  0.78129747     0.07100
C2083       C  0.63214371  0.00821249  0.78739108     0.00900
H2084       H  0.64971235  0.98702462  0.75723718     0.08600
H2085       H  0.62364632  0.00809302  0.79891860     0.07600
N2086       N  0.67349606  0.06835397  0.72266454    -0.36200
N2087       N  0.67272202  0.08951594  0.72225090    -0.28400
C2088       C  0.68022999  0.10060425  0.70745245    -0.03600
C2089       C  0.68597141  0.08564076  0.69804220     0.05000
C2090       C  0.68152530  0.06540678  0.70818892     0.03100
H2091       H  0.68071820  0.11787393  0.70377991     0.08200
H2092       H  0.68281224  0.04897495  0.70515533     0.07000
O2093       O  0.56589040  0.13623870  0.80246004    -0.73000
O2094       O  0.63631980  0.17295264  0.82349686    -0.74000
O2095       O  0.59271423  0.17747207  0.82473490    -0.62600
O2096       O  0.60958650  0.13151760  0.80125631    -0.71000
O2097       O  0.62579655  0.15958468  0.78055537    -0.70600
O2098       O  0.60865823  0.20547378  0.80399193    -0.61800
O2099       O  0.65242057  0.20094393  0.80274765    -0.74300
O2100       O  0.58219491  0.16413190  0.78166473    -0.73100
Cu2101     Cu  0.60052125  0.15352128  0.81369647     1.04600
Cu2102     Cu  0.61785579  0.18356186  0.79152656     1.04300
C2103       C  0.56292329  0.14441254  0.78884141     0.93200
C2104       C  0.65553055  0.19271796  0.81629509     0.92300
C2105       C  0.59782799  0.19861081  0.81796495     0.84500
C2106       C  0.62062637  0.13842562  0.78735235     0.90700
C2107       C  0.71321047  0.05957272  0.64944355    -0.17900
C2108       C  0.71691779  0.06040850  0.63266133    -0.20100
C2109       C  0.71279060  0.07660663  0.62277899     0.20600
C2110       C  0.70487892  0.09213217  0.62987240    -0.03000
C2111       C  0.70115322  0.09130120  0.64679969    -0.06000
C2112       C  0.70528898  0.07489892  0.65660585     0.20900
C2113       C  0.69313277  0.10674466  0.65388201     0.19000
C2114       C  0.68899114  0.12293094  0.64399956    -0.17500
C2115       C  0.69268944  0.12375977  0.62721950    -0.19800
C2116       C  0.70062259  0.10844134  0.62006085     0.20500
C2117       C  0.70442714  0.10922741  0.60326666    -0.32800
C2118       C  0.71259304  0.09403928  0.59607535     0.01200
C2119       C  0.71657677  0.07764599  0.60595003    -0.24100
C2120       C  0.70108876  0.07381287  0.67337225    -0.28700
C2121       C  0.69250083  0.08867534  0.68051323     0.06900
C2122       C  0.68896025  0.10540892  0.67067603    -0.27300
H2123       H  0.71643321  0.04684606  0.65681785     0.11600
H2124       H  0.72300236  0.04836604  0.62740841     0.12700
H2125       H  0.68278189  0.13488041  0.64924315     0.09100
H2126       H  0.68933680  0.13638365  0.61983633     0.11100
H2127       H  0.70092446  0.12169175  0.59585767     0.16400
H2128       H  0.72297991  0.06592695  0.60064931     0.12400
H2129       H  0.70430406  0.06114139  0.68078793     0.15200
H2130       H  0.68226487  0.11690641  0.67594222     0.15000
C2131       C  0.83709155  0.36656696  0.29167727    -0.17900
C2132       C  0.83304468  0.36511467  0.30844865    -0.20100
C2133       C  0.83468032  0.38595284  0.31670944     0.20600
C2134       C  0.84014159  0.40834385  0.30798192    -0.03000
C2135       C  0.84419146  0.40979310  0.29106765    -0.06000
C2136       C  0.84282830  0.38887618  0.28290287     0.20900
C2137       C  0.84989717  0.43229125  0.28237436     0.19000
C2138       C  0.85127716  0.45302306  0.29060332    -0.17500
C2139       C  0.84726357  0.45158653  0.30736935    -0.19800
C2140       C  0.84178890  0.42938838  0.31616347     0.20500
C2141       C  0.83811903  0.42796781  0.33300611    -0.32800
C2142       C  0.83284082  0.40578976  0.34182948     0.01200
C2143       C  0.83106203  0.38482088  0.33354930    -0.24100
C2144       C  0.84758036  0.39077699  0.26615624    -0.28700
C2145       C  0.85380704  0.41337734  0.25744628     0.06900
C2146       C  0.85456953  0.43389255  0.26565171    -0.27300
H2147       H  0.83592523  0.35031252  0.28558662     0.11600
H2148       H  0.82879699  0.34775298  0.31497669     0.12700
H2149       H  0.85563925  0.97043366  0.28408726     0.11800
H2150       H  0.84856850  0.96789988  0.31347130     0.11100
H2151       H  0.83975080  0.44433453  0.33921809     0.16400
H2152       H  0.82668626  0.36747953  0.34013306     0.12400
H2153       H  0.84658760  0.37469281  0.25997923     0.15200
H2154       H  0.85948021  0.45149539  0.25918681     0.15000
C2155       C  0.48724693  0.12096781  0.62594571    -0.17900
C2156       C  0.48841036  0.12051289  0.64288811    -0.20100
C2157       C  0.96661572  0.10153082  0.65189755     0.20600
C2158       C  0.94342013  0.08287188  0.64376733    -0.03000
C2159       C  0.94224454  0.08333290  0.62668191    -0.06000
C2160       C  0.96426450  0.10246332  0.61774393     0.20900
C2161       C  0.91904539  0.06465512  0.61856329     0.19000
C2162       C  0.89723931  0.04569935  0.62756867    -0.17500
C2163       C  0.89840977  0.04523404  0.64450025    -0.19800
C2164       C  0.92140334  0.06371469  0.65269157     0.20500
C2165       C  0.92274122  0.06326241  0.66964827    -0.32800
C2166       C  0.94586102  0.08162848  0.67789763     0.01200
C2167       C  0.96768646  0.10080354  0.66887906    -0.24100
C2168       C  0.96291906  0.10283106  0.60076908    -0.28700
C2169       C  0.93977724  0.08441362  0.59254555     0.06900
C2170       C  0.91796735  0.06530576  0.60159065    -0.27300
H2171       H  0.50433184  0.13581056  0.61925487     0.11600
H2172       H  0.50637932  0.13498833  0.64894343     0.12700
H2173       H  0.87926946  0.53122836  0.62151715     0.11800
H2174       H  0.88132677  0.53038560  0.65119002     0.11100
H2175       H  0.90567474  0.04852306  0.67632048     0.16400
H2176       H  0.98565228  0.11505521  0.67495826     0.12400
H2177       H  0.97997300  0.11751770  0.59404925     0.15200
H2178       H  0.89997070  0.05106541  0.59553560     0.15000
C2179       C  0.99274239  0.35568969  0.62405376    -0.17900
C2180       C  0.99468419  0.36057546  0.64073110    -0.20100
C2181       C  0.97333996  0.35739537  0.64935612     0.20600
C2182       C  0.94992177  0.34954726  0.64106385    -0.03000
C2183       C  0.94796764  0.34462996  0.62423179    -0.06000
C2184       C  0.96942454  0.34753954  0.61571783     0.20900
C2185       C  0.92446396  0.33654563  0.61597384     0.19000
C2186       C  0.90320674  0.33361760  0.62456456    -0.17500
C2187       C  0.90514654  0.33849609  0.64123784    -0.19800
C2188       C  0.92837527  0.34638738  0.64960276     0.20500
C2189       C  0.93034415  0.35096104  0.66636771    -0.32800
C2190       C  0.95352719  0.35851936  0.67477770     0.01200
C2191       C  0.97497479  0.36178851  0.66613288    -0.24100
C2192       C  0.96709724  0.34196999  0.59907091    -0.28700
C2193       C  0.94360532  0.33355800  0.59078318     0.06900
C2194       C  0.92247974  0.33118191  0.59932281    -0.27300
H2195       H  0.50943272  0.35810084  0.61769532     0.11600
H2196       H  0.51283920  0.36667840  0.64690732     0.12700
H2197       H  0.88501515  0.32741221  0.61840133     0.11800
H2198       H  0.88841716  0.33597762  0.64760906     0.11100
H2199       H  0.91361822  0.34818105  0.67287952     0.16400
H2200       H  0.99305881  0.36792943  0.67239749     0.12400
H2201       H  0.48360535  0.34417569  0.59259505     0.15200
H2202       H  0.90420277  0.32451831  0.59315135     0.15000
C2203       C  0.63339494  0.14289381  0.29823819    -0.17900
C2204       C  0.63488347  0.14716199  0.31497673    -0.20100
C2205       C  0.62032462  0.15593716  0.32223560     0.20600
C2206       C  0.60403699  0.16036620  0.31254386    -0.03000
C2207       C  0.60253696  0.15606172  0.29564820    -0.06000
C2208       C  0.61731561  0.14731968  0.28847110     0.20900
C2209       C  0.58630855  0.16056599  0.28595324     0.19000
C2210       C  0.57172595  0.16931490  0.29321110    -0.17500
C2211       C  0.57322397  0.17359333  0.30994659    -0.19800
C2212       C  0.58932993  0.16919571  0.31970888     0.20500
C2213       C  0.59115103  0.17371733  0.33647392    -0.32800
C2214       C  0.60758071  0.16964715  0.34624910     0.01200
C2215       C  0.62193256  0.16052647  0.33898881    -0.24100
C2216       C  0.61573992  0.14310107  0.27167215    -0.28700
C2217       C  0.59954691  0.14746789  0.26188031     0.06900
C2218       C  0.58493799  0.15627123  0.26917703    -0.27300
H2219       H  0.64486046  0.13615774  0.29292597     0.11600
H2220       H  0.64749635  0.14366631  0.32224418     0.12700
H2221       H  0.55916542  0.17287497  0.28593750     0.11800
H2222       H  0.56181620  0.18040329  0.31525189     0.11100
H2223       H  0.58005983  0.18085242  0.34177536     0.16400
H2224       H  0.63445495  0.15701181  0.34630628     0.12400
H2225       H  0.62697059  0.13615490  0.26632326     0.15200
H2226       H  0.57256879  0.15998790  0.26185397     0.15000
C2227       C  0.56650165  0.37255027  0.29446046    -0.17900
C2228       C  0.56785764  0.37177081  0.31137271    -0.20100
C2229       C  0.58805335  0.39331366  0.31985269     0.20600
C2230       C  0.60708445  0.41583664  0.31122741    -0.03000
C2231       C  0.60571829  0.41661960  0.29416237    -0.06000
C2232       C  0.58532607  0.39486956  0.28575602     0.20900
C2233       C  0.62473419  0.43915013  0.28553183     0.19000
C2234       C  0.64493087  0.46069065  0.29401358    -0.17500
C2235       C  0.64628830  0.45990593  0.31093071    -0.19800
C2236       C  0.62745951  0.43758777  0.31964151     0.20500
C2237       C  0.62862460  0.43668432  0.33660825    -0.32800
C2238       C  0.60970115  0.41430444  0.34534978     0.01200
C2239       C  0.58949557  0.39268811  0.33680308    -0.24100
C2240       C  0.58410464  0.39578679  0.26880276    -0.28700
C2241       C  0.60295837  0.41819023  0.26006601     0.06900
C2242       C  0.62322806  0.43979524  0.26858055    -0.27300
H2243       H  0.55069779  0.35566703  0.28817929     0.11600
H2244       H  0.55308767  0.35431767  0.31782678     0.12700
H2245       H  0.65968632  0.47815075  0.28755931     0.11800
H2246       H  0.66208257  0.47679749  0.31721314     0.11100
H2247       H  0.64427231  0.45357190  0.34293295     0.16400
H2248       H  0.57482477  0.37521590  0.34323921     0.12400
H2249       H  0.56846792  0.37889184  0.26247642     0.15200
H2250       H  0.63780283  0.45728571  0.26211898     0.15000
C2251       C  0.51174849  0.28426362  0.97435497    -0.17900
C2252       C  0.51719158  0.28637236  0.95772930    -0.20100
C2253       C  0.51931869  0.26732095  0.94987402     0.20600
C2254       C  0.51583916  0.24590097  0.95883363    -0.03000
C2255       C  0.51035260  0.24377723  0.97560857    -0.06000
C2256       C  0.50832940  0.26306361  0.98340495     0.20900
C2257       C  0.00696465  0.22239514  0.98456642     0.19000
C2258       C  0.00899223  0.20329421  0.97670671    -0.17500
C2259       C  0.01443197  0.20540239  0.96009200    -0.19800
C2260       C  0.01794196  0.22665079  0.95106154     0.20500
C2261       C  0.02367827  0.22903164  0.93442788    -0.32800
C2262       C  0.52749271  0.25049214  0.92538583     0.01200
C2263       C  0.52507135  0.26945672  0.93325190    -0.24100
C2264       C  0.50298222  0.26085728  0.00010438    -0.28700
C2265       C  0.49959071  0.23958409  0.00916737     0.06900
C2266       C  0.00160341  0.22043537  0.00122402    -0.27300
H2267       H  0.51025411  0.29924927  0.98014040     0.11600
H2268       H  0.51981090  0.30295440  0.95102233     0.12700
H2269       H  0.00641833  0.18673217  0.98341942     0.11800
H2270       H  0.01597183  0.19044168  0.95431438     0.11100
H2271       H  0.02522501  0.21412900  0.92861858     0.16400
H2272       H  0.52796100  0.28614448  0.92658129     0.12400
H2273       H  0.50166011  0.27585368  0.00598667     0.15200
H2274       H  0.99885534  0.20380321  0.00789780     0.15000
C2275       C  0.81392714  0.00085242  0.97939533    -0.17900
C2276       C  0.81201317  0.99614852  0.96270397    -0.20100
C2277       C  0.78897686  0.98885082  0.95429677     0.20600
C2278       C  0.76766830  0.48629649  0.96278105    -0.03000
C2279       C  0.76959024  0.49102012  0.97962597    -0.06000
C2280       C  0.79283083  0.49832676  0.98795536     0.20900
C2281       C  0.74829918  0.48851126  0.98810413     0.19000
C2282       C  0.72527602  0.48125219  0.97969445    -0.17500
C2283       C  0.72337323  0.47657788  0.96299954    -0.19800
C2284       C  0.74445774  0.47907071  0.95444249     0.20500
C2285       C  0.74271063  0.47444872  0.93770289    -0.32800
C2286       C  0.76386087  0.97693669  0.92912140     0.01200
C2287       C  0.78692635  0.98413504  0.93755674    -0.24100
C2288       C  0.79466849  0.50318025  0.00466733    -0.28700
C2289       C  0.77360731  0.50093347  0.01321610     0.06900
C2290       C  0.75042788  0.49342936  0.00481771    -0.27300
H2291       H  0.83193105  0.00649404  0.98560929     0.11600
H2292       H  0.82857091  0.99823298  0.95636576     0.12700
H2293       H  0.70874913  0.47924568  0.98602437     0.11800
H2294       H  0.70540450  0.47103599  0.95677357     0.11100
H2295       H  0.72472019  0.46867386  0.93144434     0.16400
H2296       H  0.80346233  0.98638195  0.93111801     0.12400
H2297       H  0.81273172  0.50916023  0.01088922     0.15200
H2298       H  0.73395343  0.49134672  0.01124126     0.15000
C2299       C  0.82283181  0.28341574  0.97658171    -0.17900
C2300       C  0.82225165  0.28468390  0.95964852    -0.20100
C2301       C  0.79881587  0.26838504  0.95116784     0.20600
C2302       C  0.77571288  0.25074289  0.95983569    -0.03000
C2303       C  0.77629282  0.24948054  0.97691494    -0.06000
C2304       C  0.79998796  0.26583983  0.98530692     0.20900
C2305       C  0.75320829  0.23174838  0.98556951     0.19000
C2306       C  0.72972460  0.21561820  0.97710514    -0.17500
C2307       C  0.72914913  0.21687221  0.96017771    -0.19800
C2308       C  0.75204428  0.23427782  0.95144591     0.20500
C2309       C  0.75164637  0.23549619  0.93447760    -0.32800
C2310       C  0.77458410  0.25299119  0.92570535     0.01200
C2311       C  0.79810266  0.26938690  0.93418149    -0.24100
C2312       C  0.80048874  0.26418010  0.00225538    -0.28700
C2313       C  0.77762514  0.24633973  0.01098199     0.06900
C2314       C  0.75402070  0.23031929  0.00251976    -0.27300
H2315       H  0.84119974  0.29613926  0.98286020     0.11600
H2316       H  0.84015963  0.29836879  0.95317693     0.12700
H2317       H  0.71181261  0.20193368  0.98357725     0.11800
H2318       H  0.71078596  0.20414222  0.95390149     0.11100
H2319       H  0.73329569  0.22296421  0.92818206     0.16400
H2320       H  0.81595634  0.28282431  0.92760441     0.12400
H2321       H  0.81887946  0.27652945  0.00856285     0.15200
H2322       H  0.73620115  0.21672859  0.00907347     0.15000
N2323       N  0.74121711  0.68467044  0.09603885    -0.27400
N2324       N  0.75448897  0.69454997  0.10964771    -0.35200
C2325       C  0.74546245  0.67567077  0.12095551     0.01000
C2326       C  0.72549570  0.65277443  0.11416388     0.07000
C2327       C  0.72307650  0.65907478  0.09839140    -0.06100
H2328       H  0.75383770  0.67817093  0.13292427     0.07700
H2329       H  0.71031358  0.64577764  0.08904729     0.08900
Cu2330     Cu  0.78720834  0.73148925  0.11178784     0.44200
Cu2331     Cu  0.75159597  0.70550123  0.07440457     0.42000
Cu2332     Cu  0.81456912  0.76779681  0.07491039     0.43900
N2333       N  0.82388423  0.76481648  0.11030951    -0.34700
N2334       N  0.83418167  0.77828484  0.09675492    -0.29000
C2335       C  0.85953105  0.79677607  0.09933005    -0.05100
C2336       C  0.86530792  0.79441423  0.11520625     0.07100
C2337       C  0.84232336  0.77410047  0.12185467     0.00900
H2338       H  0.87309242  0.80967683  0.09004985     0.08600
H2339       H  0.83955504  0.76561181  0.13384092     0.07600
N2340       N  0.79202044  0.75160306  0.05438088    -0.36200
N2341       N  0.76905838  0.72908008  0.05413774    -0.28400
C2342       C  0.76018310  0.72391445  0.03879216    -0.03600
C2343       C  0.77849834  0.74416047  0.02886123     0.05000
C2344       C  0.79840417  0.76135386  0.03924185     0.03100
H2345       H  0.74207406  0.70628373  0.03515324     0.08200
H2346       H  0.81640243  0.77958006  0.03611828     0.07000
N2347       N  0.80870687  0.81401540  0.84060912    -0.27400
N2348       N  0.79433602  0.80443795  0.82734574    -0.35200
C2349       C  0.80305021  0.82336584  0.81609198     0.01000
C2350       C  0.82389214  0.84600926  0.82256154     0.07000
C2351       C  0.82717526  0.83948175  0.83808654    -0.06100
H2352       H  0.79379331  0.82115341  0.80446114     0.07700
H2353       H  0.84077877  0.85258873  0.84720641     0.08900
Cu2354     Cu  0.76052682  0.76810502  0.82572437     0.44200
Cu2355     Cu  0.79955946  0.79305435  0.86216318     0.42000
Cu2356     Cu  0.73582524  0.73074029  0.86220602     0.43900
N2357       N  0.72343216  0.73540320  0.82772090    -0.34700
N2358       N  0.71394497  0.72142531  0.84118209    -0.29000
C2359       C  0.68831281  0.70325753  0.83907294    -0.05100
C2360       C  0.68156290  0.70633390  0.82358048     0.07100
C2361       C  0.70425799  0.72677273  0.81671237     0.00900
H2362       H  0.67534951  0.68980240  0.84837669     0.08600
H2363       H  0.70645660  0.73555623  0.80488058     0.07600
N2364       N  0.75980692  0.74659608  0.88231392    -0.36200
N2365       N  0.78281602  0.76910211  0.88237882    -0.28400
C2366       C  0.79199146  0.77446511  0.89766290    -0.03600
C2367       C  0.77381580  0.75443298  0.90776049     0.05000
C2368       C  0.75374021  0.73706862  0.89751820     0.03100
H2369       H  0.81001690  0.79228058  0.90118587     0.08200
H2370       H  0.73561265  0.71910955  0.90082182     0.07000
O2371       O  0.73464462  0.74295567  0.46987047    -0.73000
O2372       O  0.80553413  0.77209225  0.48953976    -0.74000
O2373       O  0.78269040  0.79196065  0.46920810    -0.62600
O2374       O  0.75733209  0.72306792  0.49044917    -0.71000
O2375       O  0.76912166  0.71060751  0.46871757    -0.70600
O2376       O  0.79459910  0.77975277  0.44741246    -0.61800
O2377       O  0.81716182  0.75956205  0.46776761    -0.74300
O2378       O  0.74654401  0.73053539  0.44817409    -0.73100
Cu2379     Cu  0.76961486  0.75794179  0.48053217     1.04600
Cu2380     Cu  0.78227401  0.74468158  0.45725704     1.04300
C2381       C  0.72958895  0.73248256  0.45583783     0.93200
C2382       C  0.82240026  0.77009524  0.48176330     0.92300
C2383       C  0.79237063  0.79662759  0.45493684     0.84500
C2384       C  0.75954846  0.70613303  0.48302977     0.90700
O2385       O  0.56706068  0.90969317  0.80256874    -0.73000
O2386       O  0.63660001  0.93702226  0.82359497    -0.74000
O2387       O  0.61552804  0.95845496  0.80296447    -0.62600
O2388       O  0.58804149  0.88840758  0.82323770    -0.71000
O2389       O  0.60091729  0.87686049  0.80158341    -0.70600
O2390       O  0.62826651  0.94688499  0.78126012    -0.61800
O2391       O  0.64927637  0.92548098  0.80184847    -0.74300
O2392       O  0.57983006  0.89805987  0.78091009    -0.73100
Cu2393     Cu  0.60135285  0.92382247  0.81384969     1.04600
Cu2394     Cu  0.61502054  0.91141460  0.79064440     1.04300
C2395       C  0.56260338  0.89980913  0.78838845     0.93200
C2396       C  0.65375050  0.93517059  0.81607377     0.92300
C2397       C  0.62598735  0.96362714  0.78889363     0.84500
C2398       C  0.59043278  0.87171700  0.81564705     0.90700
N2399       N  0.75189092  0.04805705  0.09388400    -0.27400
N2400       N  0.76750186  0.05640700  0.10667556    -0.35200
C2401       C  0.75871831  0.06600677  0.11760033     0.01000
C2402       C  0.73645394  0.06351173  0.11142848     0.07000
C2403       C  0.73259338  0.05204101  0.09638058    -0.06100
H2404       H  0.76766570  0.07380728  0.12929007     0.07700
H2405       H  0.71684433  0.04676262  0.08794913     0.08900
Cu2406     Cu  0.79976387  0.05417634  0.10916882     0.44200
Cu2407     Cu  0.75786967  0.03183674  0.07373774     0.42000
Cu2408     Cu  0.81545218  0.02791875  0.07599703     0.43900
N2409       N  0.83222446  0.05203725  0.10895272    -0.34700
N2410       N  0.83823892  0.04251843  0.09666847    -0.29000
C2411       C  0.86138917  0.04555701  0.09968153    -0.05100
C2412       C  0.87020173  0.05750662  0.11460415     0.07100
C2413       C  0.85123907  0.06128273  0.12016670     0.00900
H2414       H  0.87137968  0.04017577  0.09142136     0.08600
H2415       H  0.85165020  0.57088585  0.13124943     0.07600
N2416       N  0.79148055  0.01769704  0.05585805    -0.36200
N2417       N  0.77066268  0.01906500  0.05500061    -0.28400
C2418       C  0.76070678  0.01263924  0.03992699    -0.03600
C2419       C  0.77605403  0.00705672  0.03077795     0.05000
C2420       C  0.79533650  0.01041716  0.04136792     0.03100
H2421       H  0.74414314  0.01310812  0.03582574     0.08200
H2422       H  0.81141716  0.00832597  0.03874411     0.07000
N2423       N  0.79266426  0.94485803  0.84491241    -0.27400
N2424       N  0.77882268  0.93968496  0.83146188    -0.35200
C2425       C  0.78879162  0.93221631  0.81989352     0.01000
C2426       C  0.81003834  0.93289911  0.82633206     0.07000
C2427       C  0.81202653  0.94104451  0.84219720    -0.06100
H2428       H  0.78135197  0.92708534  0.80763059     0.07700
H2429       H  0.82642678  0.94395740  0.85110925     0.08900
Cu2430     Cu  0.74734547  0.94337184  0.82912774     0.44200
Cu2431     Cu  0.78405647  0.45614222  0.86639166     0.42000
Cu2432     Cu  0.72732567  0.46093983  0.86498506     0.43900
N2433       N  0.71558366  0.94677490  0.82982797    -0.34700
N2434       N  0.70812639  0.95319221  0.84300156    -0.29000
C2435       C  0.68556436  0.95136253  0.83990669    -0.05100
C2436       C  0.67854897  0.94333859  0.82402874     0.07100
C2437       C  0.69802600  0.94069806  0.81798054     0.00900
H2438       H  0.67440950  0.95424508  0.84880882     0.08600
H2439       H  0.69866679  0.93350718  0.80614802     0.07600
N2440       N  0.74844318  0.46580328  0.88582273    -0.36200
N2441       N  0.76917065  0.46427121  0.88639077    -0.28400
C2442       C  0.77791912  0.46805355  0.90176757    -0.03600
C2443       C  0.76187679  0.47211676  0.91138834     0.05000
C2444       C  0.74340526  0.47052640  0.90078397     0.03100
H2445       H  0.79449344  0.46742003  0.90562355     0.08200
H2446       H  0.72746646  0.47274910  0.90361220     0.07000
N2447       N  0.46385197  0.76558744  0.09336760    -0.27400
N2448       N  0.45992414  0.75239013  0.10701664    -0.35200
C2449       C  0.45323920  0.76268059  0.11881916     0.01000
C2450       C  0.45322621  0.78351796  0.11232859     0.07000
C2451       C  0.46005452  0.78489681  0.09619442    -0.06100
H2452       H  0.94911566  0.75573351  0.13125078     0.07700
H2453       H  0.46203464  0.79881808  0.08716584     0.08900
Cu2454     Cu  0.46456015  0.72164707  0.10946178     0.44200
Cu2455     Cu  0.47396395  0.75670653  0.07151125     0.42000
Cu2456     Cu  0.48287710  0.70287274  0.07344916     0.43900
N2457       N  0.46943670  0.69095463  0.10875463    -0.34700
N2458       N  0.47602093  0.68382880  0.09551108    -0.29000
C2459       C  0.47486027  0.66160224  0.09862017    -0.05100
C2460       C  0.46711128  0.65450315  0.11458190     0.07100
C2461       C  0.46394885  0.67357009  0.12065960     0.00900
H2462       H  0.47782895  0.65061721  0.08966282     0.08600
H2463       H  0.95658405  0.67390941  0.13251650     0.07600
N2464       N  0.48722806  0.72366317  0.05247567    -0.36200
N2465       N  0.48391796  0.74324117  0.05162152    -0.28400
C2466       C  0.48786607  0.75205598  0.03620761    -0.03600
C2467       C  0.49395234  0.73726018  0.02686103     0.05000
C2468       C  0.49335514  0.71947610  0.03770072     0.03100
H2469       H  0.48612725  0.76789812  0.03217171     0.08200
H2470       H  0.49711187  0.70450128  0.03518578     0.07000
N2471       N  0.57581604  0.73046060  0.84407396    -0.27400
N2472       N  0.58308252  0.74554523  0.83099362    -0.35200
C2473       C  0.59237702  0.73675248  0.81986222     0.01000
C2474       C  0.59080024  0.71501756  0.82619914     0.07000
C2475       C  0.58019435  0.71147090  0.84154689    -0.06100
H2476       H  0.59941901  0.74538007  0.80796333     0.07700
H2477       H  0.57587167  0.69619614  0.85019932     0.08900
Cu2478     Cu  0.58002872  0.77717553  0.82837160     0.44200
Cu2479     Cu  0.56053105  0.73656971  0.86472356     0.42000
Cu2480     Cu  0.55501272  0.79261164  0.86243372     0.43900
N2481       N  0.57703880  0.80898066  0.82885447    -0.34700
N2482       N  0.56806753  0.81496987  0.84146216    -0.29000
C2483       C  0.57061693  0.83790850  0.83851859    -0.05100
C2484       C  0.58167828  0.84657296  0.82330755     0.07100
C2485       C  0.58544545  0.82777939  0.81750384     0.00900
H2486       H  0.56569093  0.84793949  0.84704239     0.08600
H2487       H  0.59464578  0.82824834  0.80619426     0.07600
N2488       N  0.54538453  0.76902862  0.88276133    -0.36200
N2489       N  0.54748052  0.74868564  0.88372921    -0.28400
C2490       C  0.54099184  0.73862302  0.89883388    -0.03600
C2491       C  0.53450878  0.75339081  0.90787884     0.05000
C2492       C  0.53750386  0.77245981  0.89716159     0.03100
H2493       H  0.54169460  0.72219592  0.90294095     0.08200
H2494       H  0.53471160  0.78811139  0.89959397     0.07000
O2495       O  0.96095796  0.61270532  0.11484094    -0.73000
O2496       O  0.93314323  0.54267776  0.13529815    -0.74000
O2497       O  0.91224932  0.56418364  0.11480962    -0.62600
O2498       O  0.98189341  0.59110608  0.13542320    -0.71000
O2499       O  0.96955004  0.60277809  0.15726662    -0.70600
O2500       O  0.90020413  0.57667702  0.13640255    -0.61800
O2501       O  0.92044290  0.55444953  0.15692436    -0.74300
O2502       O  0.94910822  0.62484292  0.13670009    -0.73100
Cu2503     Cu  0.94753392  0.57726920  0.12434269     1.04600
Cu2504     Cu  0.93442908  0.59014177  0.14759315     1.04300
C2505       C  0.95900813  0.62965087  0.12247494     0.93200
C2506       C  0.92242151  0.53751863  0.14928618     0.92300
C2507       C  0.89534436  0.56641191  0.12232508     0.84500
C2508       C  0.98654981  0.60081207  0.14965597     0.90700
N2509       N  0.66955295  0.94944867  0.43055532    -0.27400
N2510       N  0.65980940  0.93539907  0.44398341    -0.35200
C2511       C  0.67868954  0.94431221  0.45523344     0.01000
C2512       C  0.70146602  0.46498110  0.44858421     0.07000
C2513       C  0.69503931  0.46791151  0.43295350    -0.06100
H2514       H  0.67636020  0.93532354  0.46700744     0.07700
H2515       H  0.70824607  0.48123766  0.42368737     0.08900
Cu2516     Cu  0.62317111  0.90174747  0.44569466     0.44200
Cu2517     Cu  0.64868883  0.93962187  0.40901842     0.42000
Cu2518     Cu  0.58570621  0.87631821  0.40928722     0.43900
N2519       N  0.59032602  0.86459233  0.44401038    -0.34700
N2520       N  0.57632562  0.85492724  0.43063082    -0.29000
C2521       C  0.55838307  0.82925880  0.43291121    -0.05100
C2522       C  0.56162928  0.82262205  0.44841213     0.07100
C2523       C  0.58191328  0.84546610  0.45512464     0.00900
H2524       H  0.04513073  0.81614932  0.42366162     0.08600
H2525       H  0.59088608  0.84776244  0.46686875     0.07600
N2526       N  0.60247497  0.89976883  0.38892623    -0.36200
N2527       N  0.62521993  0.92253949  0.38876734    -0.28400
C2528       C  0.63107473  0.93145470  0.37340672    -0.03600
C2529       C  0.61108472  0.91340081  0.36332551     0.05000
C2530       C  0.59326848  0.89361742  0.37369859     0.03100
H2531       H  0.64905601  0.94940595  0.36989842     0.08200
H2532       H  0.57515904  0.87564445  0.37051516     0.07000
N2533       N  0.54136549  0.88489234  0.17541483    -0.27400
N2534       N  0.55132376  0.89838940  0.16182315    -0.35200
C2535       C  0.53247075  0.88948719  0.15056311     0.01000
C2536       C  0.00954839  0.86933915  0.15738730     0.07000
C2537       C  0.01578906  0.86676318  0.17312313    -0.06100
H2538       H  0.53506440  0.89784249  0.13855033     0.07700
H2539       H  0.00251414  0.85366029  0.18244233     0.08900
Cu2540     Cu  0.58872449  0.93059270  0.15963579     0.44200
Cu2541     Cu  0.56230658  0.89433372  0.19683734     0.42000
Cu2542     Cu  0.62693408  0.95517967  0.19592628     0.43900
N2543       N  0.62294563  0.96663082  0.16106679    -0.34700
N2544       N  0.63713252  0.97608163  0.17439572    -0.29000
C2545       C  0.65580101  0.50150533  0.17197256    -0.05100
C2546       C  0.65280556  0.50817012  0.15643289     0.07100
C2547       C  0.63197243  0.98562342  0.14983881     0.00900
H2548       H  0.66922101  0.51452485  0.18119195     0.08600
H2549       H  0.62286692  0.98357451  0.13817279     0.07600
N2550       N  0.60986164  0.93249090  0.21649375    -0.36200
N2551       N  0.58643483  0.91050315  0.21685547    -0.28400
C2552       C  0.58058976  0.90176359  0.23224054    -0.03600
C2553       C  0.60132057  0.91913040  0.24212761     0.05000
C2554       C  0.61955069  0.93832936  0.23162788     0.03100
H2555       H  0.56214258  0.88448037  0.23591073     0.08200
H2556       H  0.63830779  0.95566086  0.23467273     0.07000
N2557       N  0.58840236  0.71793350  0.42733983    -0.27400
N2558       N  0.60369861  0.72568252  0.44026035    -0.35200
C2559       C  0.59487520  0.73510517  0.45129007     0.01000
C2560       C  0.57288974  0.73311384  0.44503338     0.07000
C2561       C  0.56925175  0.72212327  0.42983893    -0.06100
H2562       H  0.60355209  0.74237245  0.46310824     0.07700
H2563       H  0.55371307  0.71725447  0.42132205     0.08900
Cu2564     Cu  0.63534394  0.72249844  0.44263268     0.44200
Cu2565     Cu  0.59456034  0.70196177  0.40713486     0.42000
Cu2566     Cu  0.65029710  0.69548077  0.40908701     0.43900
N2567       N  0.66684070  0.71885866  0.44238277    -0.34700
N2568       N  0.67268691  0.70924339  0.43005947    -0.29000
C2569       C  0.69555317  0.71170312  0.43319353    -0.05100
C2570       C  0.70430389  0.72333489  0.44822290     0.07100
C2571       C  0.68561816  0.72753399  0.45371390     0.00900
H2572       H  0.70552646  0.70636584  0.42489076     0.08600
H2573       H  0.68620643  0.73730205  0.46476116     0.07600
N2574       N  0.62628551  0.68587107  0.38892947    -0.36200
N2575       N  0.60610293  0.68828210  0.38822083    -0.28400
C2576       C  0.59587414  0.68216621  0.37320153    -0.03600
C2577       C  0.61035411  0.67565324  0.36388312     0.05000
C2578       C  0.62942730  0.67815910  0.37437175     0.03100
H2579       H  0.57949035  0.68311043  0.36934373     0.08200
H2580       H  0.64519288  0.67567655  0.37154285     0.07000
N2581       N  0.62571088  0.61104230  0.17817344    -0.27400
N2582       N  0.61156633  0.60555455  0.16483243    -0.35200
C2583       C  0.62083618  0.59720563  0.15336875     0.01000
C2584       C  0.64193296  0.59759444  0.15975462     0.07000
C2585       C  0.64459056  0.60651997  0.17548078    -0.06100
H2586       H  0.61297660  0.59160716  0.14122074     0.07700
H2587       H  0.65910444  0.60946683  0.18431254     0.08900
Cu2588     Cu  0.58046015  0.60967006  0.16246207     0.44200
Cu2589     Cu  0.61811938  0.62369780  0.19947431     0.42000
Cu2590     Cu  0.56201750  0.62932073  0.19786339     0.43900
N2591       N  0.54869370  0.61290930  0.16313310    -0.34700
N2592       N  0.54168540  0.62000771  0.17619706    -0.29000
C2593       C  0.51896714  0.61791024  0.17320434    -0.05100
C2594       C  0.51143098  0.60902647  0.15750210     0.07100
C2595       C  0.53073323  0.60613683  0.15145461     0.00900
H2596       H  0.50815695  0.62137125  0.18204386     0.08600
H2597       H  0.53105557  0.59842346  0.13974360     0.07600
N2598       N  0.58384055  0.63549336  0.21859749    -0.36200
N2599       N  0.60425620  0.63346319  0.21927241    -0.28400
C2600       C  0.61321048  0.63767966  0.23461788    -0.03600
C2601       C  0.59765263  0.64259925  0.24412083     0.05000
C2602       C  0.57925634  0.64105247  0.23344684     0.03100
H2603       H  0.62971474  0.63695910  0.23849887     0.08200
H2604       H  0.56321861  0.64313023  0.23623270     0.07000
O2605       O  0.65740988  0.53726604  0.13574802    -0.73000
O2606       O  0.69269404  0.60747562  0.11455379    -0.74000
O2607       O  0.69831526  0.56458479  0.11315202    -0.62600
O2608       O  0.65175420  0.58035457  0.13730320    -0.71000
O2609       O  0.67988206  0.59630532  0.15785559    -0.70600
O2610       O  0.72664006  0.58113764  0.13358903    -0.61800
O2611       O  0.72071143  0.62397719  0.13516128    -0.74300
O2612       O  0.68569700  0.55353087  0.15622365    -0.73100
Cu2613     Cu  0.67399901  0.57181159  0.12449220     1.04600
Cu2614     Cu  0.70426855  0.58935690  0.14640842     1.04300
C2615       C  0.66602544  0.53422114  0.14914067     0.93200
C2616       C  0.71226501  0.62685800  0.12163863     0.92300
C2617       C  0.71974356  0.57019163  0.11970855     0.84500
C2618       C  0.65856998  0.59098615  0.15128579     0.90700
O2619       O  0.52913308  0.77716440  0.44841397    -0.73000
O2620       O  0.99342467  0.70625577  0.46894304    -0.74000
O2621       O  0.98778647  0.74930718  0.47076336    -0.62600
O2622       O  0.53481641  0.73426023  0.44668273    -0.71000
O2623       O  0.56276865  0.75031546  0.46732236    -0.70600
O2624       O  0.51560581  0.76516147  0.49147625    -0.61800
O2625       O  0.52124739  0.72222159  0.48965437    -0.74300
O2626       O  0.55693062  0.79331708  0.46913248    -0.73100
Cu2627     Cu  0.01028243  0.74115921  0.45799966     1.04600
Cu2628     Cu  0.54017275  0.75834543  0.48010958     1.04300
C2629       C  0.54856709  0.79647708  0.45565639     0.93200
C2630       C  0.00170438  0.70299289  0.48240793     0.92300
C2631       C  0.49439000  0.75986577  0.48476578     0.84500
C2632       C  0.55611036  0.73968297  0.45334130     0.90700
N2633       N  0.46213386  0.78191636  0.51056177    -0.27400
N2634       N  0.94756800  0.77518075  0.49732061    -0.35200
C2635       C  0.45641770  0.76566681  0.48637762     0.01000
C2636       C  0.47766644  0.76658803  0.49298100     0.07000
C2637       C  0.48084632  0.77701364  0.50831241    -0.06100
H2638       H  0.94834349  0.75917669  0.47434828     0.07700
H2639       H  0.49583751  0.78109238  0.51708255     0.08900
Cu2640     Cu  0.91683329  0.77972561  0.49410215     0.44200
Cu2641     Cu  0.95612015  0.79779364  0.53093227     0.42000
Cu2642     Cu  0.90211528  0.80631585  0.52788470     0.43900
N2643       N  0.88547387  0.78370070  0.49448208    -0.34700
N2644       N  0.87979434  0.79316531  0.50696888    -0.29000
C2645       C  0.85688456  0.79074371  0.50412818    -0.05100
C2646       C  0.84785501  0.77925414  0.48911585     0.07100
C2647       C  0.86646890  0.77512978  0.48331117     0.00900
H2648       H  0.84703378  0.79591654  0.51265142     0.08600
H2649       H  0.86561878  0.76538851  0.47219004     0.07600
N2650       N  0.92524607  0.81550732  0.54834011    -0.36200
N2651       N  0.94502988  0.81252654  0.54952403    -0.28400
C2652       C  0.95509317  0.81917641  0.56458287    -0.03600
C2653       C  0.94082408  0.82653995  0.57335958     0.05000
C2654       C  0.92209131  0.82398063  0.56259109     0.03100
H2655       H  0.47097552  0.81774979  0.56895973     0.08200
H2656       H  0.90694213  0.82758672  0.56493583     0.07000
N2657       N  0.92552586  0.89220122  0.75867379    -0.27400
N2658       N  0.93910188  0.89697541  0.77219254    -0.35200
C2659       C  0.92924782  0.90456091  0.78375774     0.01000
C2660       C  0.90829633  0.90434598  0.77725388     0.07000
C2661       C  0.90639516  0.89638064  0.76133857    -0.06100
H2662       H  0.93646250  0.90930208  0.79608305     0.07700
H2663       H  0.89213093  0.89370844  0.75239158     0.08900
Cu2664     Cu  0.96976757  0.89216695  0.77458739     0.44200
Cu2665     Cu  0.93416543  0.88050732  0.73735508     0.42000
Cu2666     Cu  0.98907709  0.87258252  0.73918270     0.43900
N2667       N  0.00085674  0.88781725  0.77425577    -0.34700
N2668       N  0.00814368  0.88073841  0.76130325    -0.29000
C2669       C  0.53063332  0.88253558  0.76462204    -0.05100
C2670       C  0.53774186  0.89124165  0.78039463     0.07100
C2671       C  0.01839164  0.89425829  0.78616376     0.00900
H2672       H  0.54174679  0.87927886  0.75590403     0.08600
H2673       H  0.01790767  0.90210285  0.79778820     0.07600
N2674       N  0.96833900  0.86841142  0.71821121    -0.36200
N2675       N  0.94831348  0.87108989  0.71753354    -0.28400
C2676       C  0.93981275  0.86776266  0.70211103    -0.03600
C2677       C  0.95531616  0.86288847  0.69255914     0.05000
C2678       C  0.97317934  0.86344063  0.70324867     0.03100
H2679       H  0.92389415  0.86942456  0.69814070     0.08200
H2680       H  0.98862921  0.86046418  0.70043706     0.07000
O2681       O  0.82833944  0.87498462  0.80176065    -0.73000
O2682       O  0.86214163  0.94576570  0.78133037    -0.74000
O2683       O  0.86942630  0.90404453  0.77927545    -0.62600
O2684       O  0.82101200  0.91695019  0.80372744    -0.71000
O2685       O  0.84890233  0.93314819  0.82439134    -0.70600
O2686       O  0.89733969  0.92021368  0.79992806    -0.61800
O2687       O  0.89000380  0.96212977  0.80202089    -0.74300
O2688       O  0.85626018  0.89145185  0.82241388    -0.73100
Cu2689     Cu  0.84420180  0.90980749  0.79081676     1.04600
Cu2690     Cu  0.87415524  0.92735536  0.81288934     1.04300
C2691       C  0.83689556  0.87202807  0.81521882     0.93200
C2692       C  0.88145419  0.96515339  0.78859337     0.92300
C2693       C  0.89093926  0.90992854  0.78583814     0.84500
C2694       C  0.82740908  0.92728610  0.81779781     0.90700
N2695       N  0.87895219  0.55125369  0.50749553    -0.27400
N2696       N  0.88891639  0.56484367  0.49392609    -0.35200
C2697       C  0.86998905  0.55608931  0.48270813     0.01000
C2698       C  0.84699033  0.03600560  0.48952910     0.07000
C2699       C  0.85331460  0.03325509  0.50521838    -0.06100
H2700       H  0.87249859  0.56476216  0.47080508     0.07700
H2701       H  0.83998979  0.02034558  0.51458434     0.08900
Cu2702     Cu  0.92609175  0.59779181  0.49192588     0.44200
Cu2703     Cu  0.89973767  0.56084155  0.52905151     0.42000
Cu2704     Cu  0.96283258  0.62317561  0.52877573     0.43900
N2705       N  0.95916177  0.63486213  0.49386142    -0.34700
N2706       N  0.47273512  0.64444944  0.50739965    -0.29000
C2707       C  0.49091163  0.67007745  0.50522213    -0.05100
C2708       C  0.48831022  0.67680812  0.48961483     0.07100
C2709       C  0.46811967  0.65404828  0.48273782     0.00900
H2710       H  0.50388551  0.68310263  0.51459726     0.08600
H2711       H  0.95957403  0.65187118  0.47085822     0.07600
N2712       N  0.94639814  0.59969999  0.54911540    -0.36200
N2713       N  0.92351298  0.57709464  0.54926349    -0.28400
C2714       C  0.91789741  0.56782760  0.56455633    -0.03600
C2715       C  0.93821191  0.58551467  0.57460035     0.05000
C2716       C  0.95594867  0.60544413  0.56428522     0.03100
H2717       H  0.89999402  0.54982669  0.56803167     0.08200
H2718       H  0.47405625  0.62337196  0.56752514     0.07000
N2719       N  0.91020013  0.02329178  0.76341974    -0.27400
N2720       N  0.92416783  0.53280717  0.77682840    -0.35200
C2721       C  0.91507056  0.01382663  0.78806436     0.01000
C2722       C  0.89443400  0.99123243  0.78139693     0.07000
C2723       C  0.89163370  0.99783597  0.76579995    -0.06100
H2724       H  0.92404317  0.01591981  0.79978475     0.07700
H2725       H  0.87845305  0.98475540  0.75651505     0.08900
Cu2726     Cu  0.95820950  0.56891369  0.77855166     0.44200
Cu2727     Cu  0.92039307  0.54401272  0.74183577     0.42000
Cu2728     Cu  0.48468435  0.60503015  0.74165526     0.43900
N2729       N  0.49539079  0.60150498  0.77674807    -0.34700
N2730       N  0.50541064  0.61504465  0.76318479    -0.29000
C2731       C  0.53092116  0.63331846  0.76556873    -0.05100
C2732       C  0.53706673  0.63074969  0.78133581     0.07100
C2733       C  0.51413039  0.61050536  0.78809277     0.00900
H2734       H  0.54426230  0.64639819  0.75626645     0.08600
H2735       H  0.51150162  0.60205907  0.80007986     0.07600
N2736       N  0.96142819  0.58884950  0.72128371    -0.36200
N2737       N  0.93808190  0.56677093  0.72140245    -0.28400
C2738       C  0.92884021  0.56104774  0.70617233    -0.03600
C2739       C  0.94725100  0.58046639  0.69584883     0.05000
C2740       C  0.96767247  0.59779369  0.70594847     0.03100
H2741       H  0.91034888  0.54355605  0.70294668     0.08200
H2742       H  0.48597811  0.61540047  0.70250894     0.07000
O2743       O  0.95308310  0.82204079  0.11411190    -0.73000
O2744       O  0.93750032  0.86900583  0.13753168    -0.74000
O2745       O  0.98073477  0.86364893  0.13623183    -0.62600
O2746       O  0.91036603  0.82754825  0.11551400    -0.71000
O2747       O  0.89399087  0.79962338  0.13630293    -0.70600
O2748       O  0.96438071  0.83603704  0.15716582    -0.61800
O2749       O  0.92115515  0.84110343  0.15831722    -0.74300
O2750       O  0.93725523  0.79433008  0.13500297    -0.73100
Cu2751     Cu  0.94605791  0.84658609  0.12514470     1.04600
Cu2752     Cu  0.92862208  0.81675751  0.14742752     1.04300
C2753       C  0.94757042  0.80075460  0.12087680     0.93200
C2754       C  0.92651170  0.86227762  0.15145438     0.92300
C2755       C  0.98367917  0.85562386  0.14990944     0.84500
C2756       C  0.89107474  0.80790851  0.12272029     0.90700
N2757       N  0.80075676  0.93477804  0.42571612    -0.27400
N2758       N  0.79603820  0.92119849  0.43928028    -0.35200
C2759       C  0.78868065  0.93118198  0.45088016     0.01000
C2760       C  0.78898192  0.45218252  0.44434528     0.07000
C2761       C  0.79678794  0.45402867  0.42838096    -0.06100
H2762       H  0.78388784  0.92392225  0.46323088     0.07700
H2763       H  0.79935786  0.46823252  0.41937737     0.08900
Cu2764     Cu  0.80019772  0.89007244  0.44171454     0.44200
Cu2765     Cu  0.81181330  0.92591382  0.40429435     0.42000
Cu2766     Cu  0.82100900  0.87190341  0.40646394     0.43900
N2767       N  0.80386827  0.85850617  0.44118425    -0.34700
N2768       N  0.81150783  0.85176394  0.42824439    -0.29000
C2769       C  0.80959863  0.82916389  0.43134216    -0.05100
C2770       C  0.80031360  0.82141204  0.44698730     0.07100
C2771       C  0.79696033  0.84046374  0.45289779     0.00900
H2772       H  0.81349385  0.81858507  0.42260225     0.08600
H2773       H  0.78889777  0.84057590  0.46454531     0.07600
N2774       N  0.82472232  0.89229185  0.38543978    -0.36200
N2775       N  0.82126214  0.91178304  0.38459772    -0.28400
C2776       C  0.82389362  0.91978437  0.36908282    -0.03600
C2777       C  0.82918384  0.90452285  0.35965268     0.05000
C2778       C  0.82959255  0.88732875  0.37050223     0.03100
H2779       H  0.82143445  0.93514953  0.36500044     0.08200
H2780       H  0.83297676  0.87213396  0.36782750     0.07000
N2781       N  0.90452463  0.89452906  0.17715281    -0.27400
N2782       N  0.91150202  0.90929934  0.16394473    -0.35200
C2783       C  0.92079320  0.90033853  0.15291414     0.01000
C2784       C  0.91949676  0.87884489  0.15948521     0.07000
C2785       C  0.90903756  0.87559824  0.17483481    -0.06100
H2786       H  0.92766238  0.90868564  0.14093666     0.07700
H2787       H  0.90489947  0.86056585  0.18363402     0.08900
Cu2788     Cu  0.90824143  0.94090048  0.16125531     0.44200
Cu2789     Cu  0.88929049  0.90085192  0.19764239     0.42000
Cu2790     Cu  0.88257404  0.95634007  0.19498250     0.43900
N2791       N  0.90628032  0.97342858  0.16186191    -0.34700
N2792       N  0.89710433  0.97940997  0.17436603    -0.29000
C2793       C  0.90069971  0.00288172  0.17165923    -0.05100
C2794       C  0.91270103  0.01195653  0.15671551     0.07100
C2795       C  0.91586489  0.99279462  0.15081144     0.00900
H2796       H  0.89581067  0.01295309  0.18017639     0.08600
H2797       H  0.92544681  0.99336553  0.13964765     0.07600
N2798       N  0.87209969  0.93210397  0.21502677    -0.36200
N2799       N  0.87470857  0.91208603  0.21613461    -0.28400
C2800       C  0.86776696  0.90175771  0.23114624    -0.03600
C2801       C  0.86052503  0.91605681  0.23996768     0.05000
C2802       C  0.86345303  0.93507070  0.22925765     0.03100
H2803       H  0.86902055  0.88573163  0.23544290     0.08200
H2804       H  0.86025128  0.95046965  0.23163719     0.07000
O2805       O  0.73054737  0.96946717  0.46928745    -0.73000
O2806       O  0.80146877  0.50356808  0.48951734    -0.74000
O2807       O  0.75935356  0.51024421  0.49180286    -0.62600
O2808       O  0.77291650  0.96276100  0.46703501    -0.71000
O2809       O  0.78901854  0.49088580  0.44636472    -0.70600
O2810       O  0.77561841  0.53849217  0.47119889    -0.61800
O2811       O  0.81792305  0.53169241  0.46885216    -0.74300
O2812       O  0.74694037  0.49768370  0.44866845    -0.73100
Cu2813     Cu  0.76545182  0.98547148  0.48010772     1.04600
Cu2814     Cu  0.78298366  0.51573350  0.45806831     1.04300
C2815       C  0.72752911  0.97811582  0.45587170     0.93200
C2816       C  0.82091403  0.52305073  0.48227904     0.92300
C2817       C  0.76526303  0.53184049  0.48530870     0.84500
C2818       C  0.78325685  0.96937182  0.45292412     0.90700
N2819       N  0.74759771  0.56617478  0.51262547    -0.27400
N2820       N  0.75340539  0.58047908  0.49928459    -0.35200
C2821       C  0.76098668  0.57070030  0.48769216     0.01000
C2822       C  0.75973671  0.54908858  0.49399294     0.07000
C2823       C  0.75115650  0.54668248  0.50982273    -0.06100
H2824       H  0.76656751  0.57852481  0.47549638     0.07700
H2825       H  0.74769122  0.53187826  0.51861979     0.08900
Cu2826     Cu  0.75040745  0.61228264  0.49706065     0.44200
Cu2827     Cu  0.73549215  0.57434553  0.53389814     0.42000
Cu2828     Cu  0.73143884  0.63182162  0.53218357     0.43900
N2829       N  0.74788624  0.64447693  0.49738241    -0.34700
N2830       N  0.74091790  0.65182129  0.51034584    -0.29000
C2831       C  0.74300050  0.67444721  0.50704273    -0.05100
C2832       C  0.75173480  0.68157481  0.49123545     0.07100
C2833       C  0.75459485  0.66215061  0.48545632     0.00900
H2834       H  0.73949482  0.68540937  0.51571015     0.08600
H2835       H  0.76205773  0.66145370  0.47371486     0.07600
N2836       N  0.72487627  0.60963372  0.55281914    -0.36200
N2837       N  0.72627873  0.58884265  0.55353713    -0.28400
C2838       C  0.72181137  0.57982414  0.56889919    -0.03600
C2839       C  0.71738661  0.59573543  0.57834125     0.05000
C2840       C  0.71950268  0.61440598  0.56764987     0.03100
H2841       H  0.72203907  0.56304590  0.57282513     0.08200
H2842       H  0.71795395  0.63076559  0.57039578     0.07000
N2843       N  0.64358274  0.60695756  0.76168813    -0.27400
N2844       N  0.63601441  0.59170369  0.77469586    -0.35200
C2845       C  0.62630471  0.60032093  0.78567624     0.01000
C2846       C  0.62791994  0.62208239  0.77927971     0.07000
C2847       C  0.63899523  0.62582704  0.76407779    -0.06100
H2848       H  0.61889429  0.59153528  0.79749893     0.07700
H2849       H  0.64349227  0.64115443  0.75542416     0.08900
Cu2850     Cu  0.63894773  0.55982728  0.77708896     0.44200
Cu2851     Cu  0.65943283  0.60114663  0.74129471     0.42000
Cu2852     Cu  0.66174819  0.54298550  0.74223060     0.43900
N2853       N  0.64060772  0.52710723  0.77608198    -0.34700
N2854       N  0.64864835  0.52063994  0.76321029    -0.29000
C2855       C  0.64548052  0.49736896  0.76595819    -0.05100
C2856       C  0.63493005  0.48890355  0.78129754     0.07100
C2857       C  0.63214389  0.50821267  0.78739114     0.00900
H2858       H  0.64971196  0.48702529  0.75723796     0.08600
H2859       H  0.62364673  0.50809327  0.79891854     0.07600
N2860       N  0.67349630  0.56835395  0.72266453    -0.36200
N2861       N  0.67272213  0.58951587  0.72225090    -0.28400
C2862       C  0.68023014  0.60060434  0.70745245    -0.03600
C2863       C  0.68597150  0.58564068  0.69804217     0.05000
C2864       C  0.68152546  0.56540695  0.70818894     0.03100
H2865       H  0.68071815  0.61787327  0.70378007     0.08200
H2866       H  0.68281239  0.54897392  0.70515514     0.07000
O2867       O  0.56589054  0.63623872  0.80246012    -0.73000
O2868       O  0.63631991  0.67295266  0.82349692    -0.74000
O2869       O  0.59271437  0.67747208  0.82473497    -0.62600
O2870       O  0.60958666  0.63151762  0.80125634    -0.71000
O2871       O  0.62579656  0.65958469  0.78055538    -0.70600
O2872       O  0.60865826  0.70547374  0.80399199    -0.61800
O2873       O  0.65242066  0.70094395  0.80274768    -0.74300
O2874       O  0.58219491  0.66413183  0.78166483    -0.73100
Cu2875     Cu  0.60052135  0.65352127  0.81369653     1.04600
Cu2876     Cu  0.61785583  0.68356185  0.79152661     1.04300
C2877       C  0.56292335  0.64441240  0.78884148     0.93200
C2878       C  0.65553065  0.69271797  0.81629511     0.92300
C2879       C  0.59782803  0.69861079  0.81796499     0.84500
C2880       C  0.62062651  0.63842567  0.78735237     0.90700
C2881       C  0.71321046  0.55957274  0.64944354    -0.17900
C2882       C  0.71691781  0.56040839  0.63266128    -0.20100
C2883       C  0.71279054  0.57660655  0.62277898     0.20600
C2884       C  0.70487887  0.59213209  0.62987237    -0.03000
C2885       C  0.70115322  0.59130117  0.64679970    -0.06000
C2886       C  0.70528900  0.57489892  0.65660583     0.20900
C2887       C  0.69313278  0.60674462  0.65388200     0.19000
C2888       C  0.68899111  0.62293096  0.64399954    -0.17500
C2889       C  0.69268942  0.62375966  0.62721940    -0.19800
C2890       C  0.70062261  0.60844126  0.62006082     0.20500
C2891       C  0.70442712  0.60922740  0.60326655    -0.32800
C2892       C  0.71259295  0.59403905  0.59607532     0.01200
C2893       C  0.71657675  0.57764599  0.60595006    -0.24100
C2894       C  0.70108883  0.57381290  0.67337222    -0.28700
C2895       C  0.69250084  0.58867536  0.68051319     0.06900
C2896       C  0.68896029  0.60540893  0.67067601    -0.27300
H2897       H  0.71643321  0.54684608  0.65681779     0.11600
H2898       H  0.72300220  0.54836668  0.62740865     0.12700
H2899       H  0.68278219  0.63487991  0.64924283     0.09100
H2900       H  0.68933685  0.63638351  0.61983625     0.11100
H2901       H  0.70092436  0.62169094  0.59585789     0.16400
H2902       H  0.72297999  0.56592624  0.60064907     0.12400
H2903       H  0.70430410  0.56114150  0.68078783     0.15200
H2904       H  0.68226482  0.61690658  0.67594226     0.15000
C2905       C  0.83709183  0.86656711  0.29167726    -0.17900
C2906       C  0.83304496  0.86511488  0.30844869    -0.20100
C2907       C  0.83468042  0.88595289  0.31670948     0.20600
C2908       C  0.84014169  0.90834395  0.30798192    -0.03000
C2909       C  0.84419161  0.90979321  0.29106761    -0.06000
C2910       C  0.84282842  0.88887637  0.28290288     0.20900
C2911       C  0.84989717  0.93229130  0.28237432     0.19000
C2912       C  0.85127712  0.95302308  0.29060325    -0.17500
C2913       C  0.84726354  0.95158669  0.30736939    -0.19800
C2914       C  0.84178892  0.92938843  0.31616344     0.20500
C2915       C  0.83811908  0.92796791  0.33300605    -0.32800
C2916       C  0.83284093  0.90578991  0.34182951     0.01200
C2917       C  0.83106221  0.88482110  0.33354931    -0.24100
C2918       C  0.84758054  0.89077701  0.26615619    -0.28700
C2919       C  0.85380713  0.91337746  0.25744625     0.06900
C2920       C  0.85456957  0.93389268  0.26565164    -0.27300
H2921       H  0.83592547  0.85031334  0.28558687     0.11600
H2922       H  0.82879736  0.84775321  0.31497669     0.12700
H2923       H  0.85563924  0.47043397  0.28408708     0.11800
H2924       H  0.84856878  0.46790097  0.31347174     0.11100
H2925       H  0.83975086  0.94433518  0.33921823     0.16400
H2926       H  0.82668629  0.86747896  0.34013342     0.12400
H2927       H  0.84658769  0.87469353  0.25997948     0.15200
H2928       H  0.85948013  0.95149536  0.25918679     0.15000
C2929       C  0.48724679  0.62096789  0.62594585    -0.17900
C2930       C  0.48841023  0.62051297  0.64288822    -0.20100
C2931       C  0.96661556  0.60153092  0.65189762     0.20600
C2932       C  0.94342011  0.58287200  0.64376741    -0.03000
C2933       C  0.94224451  0.58333308  0.62668199    -0.06000
C2934       C  0.96426445  0.60246342  0.61774403     0.20900
C2935       C  0.91904546  0.56465529  0.61856340     0.19000
C2936       C  0.89723917  0.54569930  0.62756869    -0.17500
C2937       C  0.89840983  0.54523417  0.64450031    -0.19800
C2938       C  0.92140330  0.56371475  0.65269161     0.20500
C2939       C  0.92274114  0.56326239  0.66964828    -0.32800
C2940       C  0.94586078  0.58162835  0.67789767     0.01200
C2941       C  0.96768654  0.60080371  0.66887925    -0.24100
C2942       C  0.96291912  0.60283130  0.60076909    -0.28700
C2943       C  0.93977733  0.58441371  0.59254560     0.06900
C2944       C  0.91796726  0.56530581  0.60159068    -0.27300
H2945       H  0.50433194  0.63581102  0.61925497     0.11600
H2946       H  0.50637919  0.63498831  0.64894351     0.12700
H2947       H  0.87926871  0.03122763  0.62151680     0.11800
H2948       H  0.88132674  0.03038582  0.65118994     0.11100
H2949       H  0.90567454  0.54852277  0.67632047     0.16400
H2950       H  0.98565026  0.61505380  0.67495774     0.12400
H2951       H  0.97997271  0.61751747  0.59404942     0.15200
H2952       H  0.89997147  0.55106599  0.59553589     0.15000
C2953       C  0.99274258  0.85569025  0.62405371    -0.17900
C2954       C  0.99468456  0.86057616  0.64073108    -0.20100
C2955       C  0.97334002  0.85739568  0.64935609     0.20600
C2956       C  0.94992181  0.84954728  0.64106387    -0.03000
C2957       C  0.94796761  0.84462989  0.62423179    -0.06000
C2958       C  0.96942476  0.84753977  0.61571777     0.20900
C2959       C  0.92446383  0.83654523  0.61597390     0.19000
C2960       C  0.90320647  0.83361688  0.62456466    -0.17500
C2961       C  0.90514631  0.83849544  0.64123800    -0.19800
C2962       C  0.92837523  0.84638716  0.64960282     0.20500
C2963       C  0.93034410  0.85096080  0.66636776    -0.32800
C2964       C  0.95352718  0.85851944  0.67477773     0.01200
C2965       C  0.97497482  0.86178883  0.66613286    -0.24100
C2966       C  0.96709714  0.84197008  0.59907095    -0.28700
C2967       C  0.94360526  0.83355777  0.59078324     0.06900
C2968       C  0.92247944  0.83118141  0.59932287    -0.27300
H2969       H  0.50943489  0.85810686  0.61769443     0.11600
H2970       H  0.51284150  0.86668498  0.64690665     0.12700
H2971       H  0.88501502  0.82741114  0.61840164     0.11800
H2972       H  0.88841741  0.83597701  0.64760901     0.11100
H2973       H  0.91361773  0.84818063  0.67287971     0.16400
H2974       H  0.99305919  0.86793012  0.67239759     0.12400
H2975       H  0.48360521  0.84417920  0.59259506     0.15200
H2976       H  0.90420288  0.82451791  0.59315155     0.15000
C2977       C  0.63339486  0.64289382  0.29823824    -0.17900
C2978       C  0.63488322  0.64716201  0.31497664    -0.20100
C2979       C  0.62032476  0.65593719  0.32223568     0.20600
C2980       C  0.60403702  0.66036629  0.31254388    -0.03000
C2981       C  0.60253703  0.65606183  0.29564823    -0.06000
C2982       C  0.61731559  0.64731991  0.28847115     0.20900
C2983       C  0.58630859  0.66056623  0.28595325     0.19000
C2984       C  0.57172602  0.66931509  0.29321106    -0.17500
C2985       C  0.57322393  0.67359352  0.30994660    -0.19800
C2986       C  0.58933002  0.66919573  0.31970886     0.20500
C2987       C  0.59115090  0.67371744  0.33647395    -0.32800
C2988       C  0.60758074  0.66964713  0.34624913     0.01200
C2989       C  0.62193229  0.66052650  0.33898873    -0.24100
C2990       C  0.61574009  0.64310108  0.27167208    -0.28700
C2991       C  0.59954682  0.64746808  0.26188034     0.06900
C2992       C  0.58493805  0.65627150  0.26917703    -0.27300
H2993       H  0.64486034  0.63615765  0.29292595     0.11600
H2994       H  0.64749746  0.64366615  0.32224471     0.12700
H2995       H  0.55916547  0.67287520  0.28593748     0.11800
H2996       H  0.56181644  0.68040273  0.31525163     0.11100
H2997       H  0.58006013  0.68085186  0.34177509     0.16400
H2998       H  0.63445613  0.65701144  0.34630708     0.12400
H2999       H  0.62696938  0.63615587  0.26632394     0.15200
H3000       H  0.57256860  0.65998812  0.26185396     0.15000
C3001       C  0.56650154  0.87255016  0.29446051    -0.17900
C3002       C  0.56785746  0.87177071  0.31137270    -0.20100
C3003       C  0.58805323  0.89331362  0.31985265     0.20600
C3004       C  0.60708418  0.91583651  0.31122742    -0.03000
C3005       C  0.60571813  0.91661950  0.29416240    -0.06000
C3006       C  0.58532580  0.89486933  0.28575602     0.20900
C3007       C  0.62473380  0.93914979  0.28553194     0.19000
C3008       C  0.64493086  0.96069082  0.29401349    -0.17500
C3009       C  0.64628786  0.95990563  0.31093069    -0.19800
C3010       C  0.62745938  0.93758781  0.31964155     0.20500
C3011       C  0.62862435  0.93668422  0.33660827    -0.32800
C3012       C  0.60970112  0.91430448  0.34534974     0.01200
C3013       C  0.58949519  0.89268778  0.33680317    -0.24100
C3014       C  0.58410451  0.89578661  0.26880276    -0.28700
C3015       C  0.60295805  0.91818993  0.26006606     0.06900
C3016       C  0.62322803  0.93979532  0.26858051    -0.27300
H3017       H  0.55069699  0.85566635  0.28817910     0.11600
H3018       H  0.55308700  0.85431720  0.31782701     0.12700
H3019       H  0.65968462  0.97814884  0.28755977     0.11800
H3020       H  0.66208343  0.97679873  0.31721355     0.11100
H3021       H  0.64427227  0.95357209  0.34293305     0.16400
H3022       H  0.57482642  0.87521762  0.34323846     0.12400
H3023       H  0.56846750  0.87889123  0.26247625     0.15200
H3024       H  0.63780105  0.95728373  0.26211972     0.15000
C3025       C  0.51174846  0.78426361  0.97435498    -0.17900
C3026       C  0.51719138  0.78637210  0.95772936    -0.20100
C3027       C  0.51931858  0.76732089  0.94987401     0.20600
C3028       C  0.51583908  0.74590087  0.95883367    -0.03000
C3029       C  0.51035265  0.74377721  0.97560861    -0.06000
C3030       C  0.50832930  0.76306351  0.98340496     0.20900
C3031       C  0.00696462  0.72239506  0.98456647     0.19000
C3032       C  0.00899226  0.70329409  0.97670672    -0.17500
C3033       C  0.01443200  0.70540244  0.96009206    -0.19800
C3034       C  0.01794191  0.72665067  0.95106159     0.20500
C3035       C  0.02367825  0.72903158  0.93442793    -0.32800
C3036       C  0.52749254  0.75049208  0.92538585     0.01200
C3037       C  0.52507112  0.76945656  0.93325188    -0.24100
C3038       C  0.50298229  0.76085727  0.00010435    -0.28700
C3039       C  0.49959086  0.73958416  0.00916744     0.06900
C3040       C  0.00160338  0.72043536  0.00122404    -0.27300
H3041       H  0.51025400  0.79924909  0.98014042     0.11600
H3042       H  0.51981115  0.80295516  0.95102207     0.12700
H3043       H  0.00641828  0.68673234  0.98341930     0.11800
H3044       H  0.01597195  0.69044092  0.95431411     0.11100
H3045       H  0.02522515  0.71412896  0.92861867     0.16400
H3046       H  0.52796062  0.78614434  0.92658121     0.12400
H3047       H  0.50165994  0.77585395  0.00598664     0.15200
H3048       H  0.99885529  0.70380284  0.00789799     0.15000
C3049       C  0.81392720  0.50085238  0.97939547    -0.17900
C3050       C  0.81201319  0.49614848  0.96270411    -0.20100
C3051       C  0.78897701  0.48885083  0.95429682     0.20600
C3052       C  0.76766832  0.98629658  0.96278095    -0.03000
C3053       C  0.76959024  0.99102018  0.97962588    -0.06000
C3054       C  0.79283096  0.99832692  0.98795530     0.20900
C3055       C  0.74829925  0.98851143  0.98810402     0.19000
C3056       C  0.72527609  0.98125246  0.97969435    -0.17500
C3057       C  0.72337317  0.97657801  0.96299939    -0.19800
C3058       C  0.74445775  0.97907080  0.95444242     0.20500
C3059       C  0.74271056  0.97444874  0.93770284    -0.32800
C3060       C  0.76386105  0.47693672  0.92912146     0.01200
C3061       C  0.78692619  0.48413503  0.93755692    -0.24100
C3062       C  0.79466831  0.00318022  0.00466718    -0.28700
C3063       C  0.77360743  0.00093361  0.01321601     0.06900
C3064       C  0.75042794  0.99342952  0.00481759    -0.27300
H3065       H  0.83193075  0.50649364  0.98560950     0.11600
H3066       H  0.82857135  0.49823302  0.95636572     0.12700
H3067       H  0.70874913  0.97924582  0.98602415     0.11800
H3068       H  0.70540545  0.97103631  0.95677375     0.11100
H3069       H  0.72471962  0.96867357  0.93144420     0.16400
H3070       H  0.80346393  0.48638206  0.93111746     0.12400
H3071       H  0.81273318  0.00916056  0.01088972     0.15200
H3072       H  0.73395372  0.99134710  0.01124109     0.15000
C3073       C  0.82283184  0.78341591  0.97658178    -0.17900
C3074       C  0.82225157  0.78468402  0.95964851    -0.20100
C3075       C  0.79881581  0.76838522  0.95116787     0.20600
C3076       C  0.77571286  0.75074298  0.95983568    -0.03000
C3077       C  0.77629279  0.74948062  0.97691493    -0.06000
C3078       C  0.79998780  0.76583975  0.98530686     0.20900
C3079       C  0.75320825  0.73174843  0.98556950     0.19000
C3080       C  0.72972452  0.71561815  0.97710511    -0.17500
C3081       C  0.72914921  0.71687229  0.96017773    -0.19800
C3082       C  0.75204419  0.73427786  0.95144589     0.20500
C3083       C  0.75164636  0.73549625  0.93447759    -0.32800
C3084       C  0.77458406  0.75299132  0.92570537     0.01200
C3085       C  0.79810271  0.76938713  0.93418150    -0.24100
C3086       C  0.80048883  0.76418023  0.00225539    -0.28700
C3087       C  0.77762505  0.74633968  0.01098197     0.06900
C3088       C  0.75402066  0.73031927  0.00251977    -0.27300
H3089       H  0.84119864  0.79613835  0.98285987     0.11600
H3090       H  0.84015942  0.79836888  0.95317710     0.12700
H3091       H  0.71181266  0.70193367  0.98357722     0.11800
H3092       H  0.71078503  0.70414144  0.95390115     0.11100
H3093       H  0.73329556  0.72296416  0.92818202     0.16400
H3094       H  0.81595595  0.78282433  0.92760463     0.12400
H3095       H  0.81887841  0.77652870  0.00856240     0.15200
H3096       H  0.73620108  0.71672847  0.00907348     0.15000
loop_ 
_geom_bond_atom_site_label_1 
_geom_bond_atom_site_label_2 
_geom_bond_distance 
_geom_bond_site_symmetry_2 
_ccdc_geom_bond_type 
N1            N2   1.321       .  A
N1            C5   1.345       .  A
N1           Cu9   2.071       .  S
N2            C3   1.339       .  A
N2           Cu8   2.044       .  S
C3            C4   1.376       .  A
C3            H6   1.082       .  S
C4            C5   1.383       .  A
C4          C294   1.458       .  S
C5            H7   1.082       .  S
Cu8          N11   2.044       .  S
Cu9          N19   2.072       .  S
Cu10         N12   2.060       .  S
Cu10         N18   2.062       .  S
N11          N12   1.320       .  A
N11          C15   1.340       .  A
N12          C13   1.342       .  A
C13          C14   1.381       .  A
C13          H16   1.082       .  S
C14          C15   1.377       .  A
C14         C434   1.455       .  S
C15          H17   1.082       .  S
N18          N19   1.321       .  A
N18          C22   1.342       .  A
N19          C20   1.344       .  A
C20          C21   1.388       .  A
C20          H23   1.081       .  S
C21          C22   1.385       .  A
C21         C765   1.481       .  S
C22          H24   1.082       .  S
N25          N26   1.322       .  A
N25          C29   1.345       .  A
N25         Cu33   2.073       .  S
N26          C27   1.339       .  A
N26         Cu32   2.046       .  S
C27          C28   1.376       .  A
C27          H30   1.082       .  S
C28          C29   1.384       .  A
C28         C369   1.459       .  S
C29          H31   1.082       .  S
Cu32         N35   2.046       .  S
Cu33         N43   2.073       .  S
Cu34         N36   2.068       .  S
Cu34         N42   2.069       .  S
N35          N36   1.320       .  A
N35          C39   1.340       .  A
N36          C37   1.345       .  A
C37          C38   1.383       .  A
C37          H40   1.082       .  S
C38          C39   1.378       .  A
C38         C556   1.460       .  S
C39          H41   1.082       .  S
N42          N43   1.322       .  A
N42          C46   1.342       .  A
N43          C44   1.344       .  A
C44          C45   1.387       .  A
C44          H47   1.081       .  S
C45          C46   1.386       .  A
C45         C762   1.482       .  S
C46          H48   1.081       .  S
O49         Cu57   2.007       .  S
O49          C59   1.278       .  A
O50         Cu57   2.008       .  S
O50          C60   1.277       .  A
O51         Cu57   1.997       .  S
O51          C61   1.276       .  A
O52         Cu57   2.000       .  S
O52          C62   1.276       .  A
O53         Cu58   2.004       .  S
O53          C62   1.277       .  A
O54         Cu58   2.007       .  S
O54          C61   1.278       .  A
O55         Cu58   1.998       .  S
O55          C60   1.276       .  A
O56         Cu58   2.000       .  S
O56          C59   1.276       .  A
Cu57        Cu58   2.378       .  S
C59         C248   1.464       .  S
C60         C324   1.464       .  S
C61         C448   1.463       .  S
C62         C510   1.463       .  S
O63         Cu71   2.003       .  S
O63          C73   1.277       .  A
O64         Cu71   2.006       .  S
O64          C74   1.277       .  A
O65         Cu71   2.001       .  S
O65          C75   1.277       .  A
O66         Cu71   1.999       .  S
O66          C76   1.276       .  A
O67         Cu72   1.999       .  S
O67          C76   1.277       .  A
O68         Cu72   2.002       .  S
O68          C75   1.277       .  A
O69         Cu72   1.999       .  S
O69          C74   1.277       .  A
O70         Cu72   2.001       .  S
O70          C73   1.276       .  A
Cu71        Cu72   2.378       .  S
C73         C348   1.463       .  S
C74         C114   1.464       .  S
C75        C1308   1.463       .  S
C76         C162   1.461       .  S
N77          N78   1.322       .  A
N77          C81   1.346       .  A
N77         Cu85   2.073       .  S
N78          C79   1.342       .  A
N78         Cu84   2.059       .  S
C79          C80   1.379       .  A
C79          H82   1.082       .  S
C80          C81   1.383       .  A
C80        C1069   1.464       .  S
C81          H83   1.082       .  S
Cu84         N87   2.059       .  S
Cu85         N95   2.074       .  S
Cu86         N88   2.068       .  S
Cu86         N94   2.070       .  S
N87          N88   1.321       .  A
N87          C91   1.343       .  A
N88          C89   1.345       .  A
C89          C90   1.383       .  A
C89          H92   1.082       .  S
C90          C91   1.380       .  A
C90         C959   1.464       .  S
C91         H867   1.082       .  S
H93         C865   1.082       .  S
N94          N95   1.322       .  A
N94          C98   1.343       .  A
N95          C96   1.344       .  A
C96          C97   1.387       .  A
C96          H99   1.081       .  S
C97          C98   1.386       .  A
C97         C741   1.484       .  S
C98         H100   1.081       .  S
N101        N102   1.322       .  A
N101        C105   1.346       .  A
N101       Cu883   2.075       .  S
N102        C103   1.343       .  A
N102       Cu108   2.064       .  S
C103        C104   1.380       .  A
C103        H106   1.082       .  S
C104        C105   1.383       .  A
C104        C372   1.466       .  S
C105        H107   1.082       .  S
Cu108       N111   2.064       .  S
Cu109       N119   2.076       .  S
Cu109       N875   2.075       .  S
Cu110       N118   2.067       .  S
Cu110       N886   2.066       .  S
N111        N112   1.321       .  A
N111        C115   1.343       .  A
N112        C113   1.344       .  A
N112       Cu884   2.066       .  S
C113        C114   1.382       .  A
C113        H116   1.082       .  S
C114        C115   1.381       .  A
C115        H117   1.082       .  S
N118        N119   1.321       .  A
N118        C122   1.343       .  A
N119        C120   1.345       .  A
C120        C121   1.388       .  A
C120        H123   1.081       .  S
C121        C122   1.386       .  A
C121        C738   1.484       .  S
C122        H124   1.081       .  S
N125        N126   1.323       .  A
N125        C129   1.345       .  A
N125       Cu133   2.076       .  S
N126        C127   1.343       .  A
N126       Cu132   2.058       .  S
C127        C128   1.379       .  A
C127       H1678   1.082       .  S
C128        C129   1.383       .  A
C128       C1979   1.463       .  S
C129        H131   1.082       .  S
H130       C1675   1.082       .  S
Cu132       N135   2.057       .  S
Cu133       N143   2.076       .  S
Cu134       N136   2.067       .  S
Cu134       N142   2.067       .  S
N135        N136   1.321       .  A
N135        C139   1.342       .  A
N136        C137   1.344       .  A
C137        C138   1.383       .  A
C137        H140   1.082       .  S
C138        C139   1.380       .  A
C138       C1731   1.463       .  S
C139       H1689   1.082       .  S
H141       C1687   1.082       .  S
N142        N143   1.321       .  A
N142        C146   1.342       .  A
N143        C144   1.346       .  A
C144        C145   1.390       .  A
C144        H147   1.081       .  S
C145        C146   1.387       .  A
C145        C717   1.487       .  S
C146        H148   1.081       .  S
N149        N150   1.322       .  A
N149        C153   1.345       .  A
N149       Cu157   2.076       .  S
N150        C151   1.341       .  A
N150       Cu156   2.053       .  S
C151        C152   1.378       .  A
C151        H154   1.082       .  S
C152        C153   1.383       .  A
C152        C557   1.462       .  S
C153        H155   1.082       .  S
Cu156       N159   2.052       .  S
Cu157       N167   2.076       .  S
Cu158       N160   2.066       .  S
Cu158       N166   2.066       .  S
N159        N160   1.321       .  A
N159        C163   1.341       .  A
N160        C161   1.344       .  A
C161        C162   1.382       .  A
C161        H164   1.082       .  S
C162        C163   1.379       .  A
C163        H165   1.082       .  S
N166        N167   1.321       .  A
N166        C170   1.342       .  A
N167        C168   1.345       .  A
C168        C169   1.390       .  A
C168        H171   1.081       .  S
C169        C170   1.387       .  A
C169        C714   1.488       .  S
C170        H172   1.081       .  S
O173       Cu181   2.002       .  S
O173        C183   1.276       .  A
O174       Cu181   1.999       .  S
O174        C184   1.277       .  A
O175       Cu181   2.003       .  S
O175        C185   1.277       .  A
O176       Cu181   2.002       .  S
O176        C186   1.277       .  A
O177       Cu182   2.004       .  S
O177        C186   1.277       .  A
O178       Cu182   2.003       .  S
O178        C185   1.277       .  A
O179       Cu182   2.004       .  S
O179        C184   1.277       .  A
O180       Cu182   2.000       .  S
O180        C183   1.277       .  A
Cu181      Cu182   2.378       .  S
C183       C1686   1.463       .  S
C184       C1246   1.463       .  S
C185        C864   1.464       .  S
C186       C1820   1.464       .  S
N187        N188   1.321       .  A
N187        C965   1.346       .  A
N187       Cu195   2.072       .  S
N188        C189   1.341       .  A
N188       Cu194   2.051       .  S
C189        C964   1.378       .  A
C189        H192   1.082       .  S
C190        C191   1.384       .  A
C190        C963   1.378       .  A
C190       C1267   1.462       .  S
C191        N961   1.346       .  A
C191        H193   1.082       .  S
Cu194       N197   2.051       .  S
Cu195       N205   2.073       .  S
Cu196       N198   2.069       .  S
Cu196       N204   2.070       .  S
N197        N198   1.321       .  A
N197        C201   1.341       .  A
N198        C199   1.345       .  A
C199        C200   1.383       .  A
C199       H1750   1.082       .  S
C200        C201   1.378       .  A
C200        C307   1.462       .  S
C201        H203   1.082       .  S
H202       C1747   1.082       .  S
N204        N205   1.322       .  A
N204        C208   1.342       .  A
N205        C206   1.344       .  A
C206        C207   1.388       .  A
C206        H209   1.081       .  S
C207        C208   1.387       .  A
C207        C690   1.485       .  S
C208        H210   1.081       .  S
N211        N212   1.321       .  A
N211       C1763   1.344       .  A
N211       Cu219   2.067       .  S
N212        C213   1.340       .  A
N212       Cu218   2.047       .  S
C213       C1762   1.377       .  A
C213        H216   1.082       .  S
C214        C215   1.382       .  A
C214       C1761   1.377       .  A
C214        C433   1.459       .  S
C215       N1759   1.344       .  A
C215        H217   1.082       .  S
Cu218       N221   2.046       .  S
Cu219       N229   2.068       .  S
Cu220       N222   2.066       .  S
Cu220       N228   2.067       .  S
N221        N222   1.321       .  A
N221        C225   1.339       .  A
N222        C997   1.345       .  A
C223        N996   1.345   1_545  A
C223        C224   1.382       .  A
C223        H226   1.082       .  S
C224        C999   1.377   1_545  A
C224        C293   1.459       .  S
C225        C998   1.377       .  A
C225        H227   1.082       .  S
N228        N229   1.321       .  A
N228        C232   1.342       .  A
N229        C230   1.343       .  A
C230        C231   1.387       .  A
C230        H233   1.081       .  S
C231        C232   1.387       .  A
C231        C693   1.484       .  S
C232        H234   1.081       .  S
N235        N236   1.321       .  A
N235        C239   1.345       .  A
N235       Cu243   2.073       .  S
N236        C237   1.342       .  A
N236       Cu242   2.056       .  S
C237        C238   1.379       .  A
C237        H240   1.082       .  S
C238        C239   1.384       .  A
C238        C310   1.464       .  S
C239        H241   1.082       .  S
Cu242       N245   2.056       .  S
Cu243       N253   2.074       .  S
Cu244       N246   2.075       .  S
Cu244       N252   2.075       .  S
N245        N246   1.321       .  A
N245        C249   1.342       .  A
N246        C247   1.345       .  A
C247        C248   1.384       .  A
C247        H250   1.082       .  S
C248        C249   1.379       .  A
C249        H251   1.082       .  S
N252        N253   1.321       .  A
N252        C256   1.344       .  A
N253        C254   1.344       .  A
C254        C255   1.388       .  A
C254        H257   1.081       .  S
C255        C256   1.388       .  A
C255        C666   1.487       .  S
C256        H258   1.081       .  S
N259        N260   1.322       .  A
N259        C263   1.345       .  A
N259       Cu267   2.077       .  S
N260        C261   1.342       .  A
N260       Cu266   2.059       .  S
C261        C262   1.379       .  A
C261        H264   1.082       .  S
C262        C263   1.384       .  A
C262        C296   1.464       .  S
C263        H265   1.082       .  S
Cu266       N269   2.058       .  S
Cu267       N277   2.077       .  S
Cu268       N270   2.068       .  S
Cu268       N276   2.069       .  S
N269        N270   1.321       .  A
N269        C273   1.342       .  A
N270        C271   1.345       .  A
C271        C272   1.383       .  A
C271        H274   1.082       .  S
C272        C273   1.380       .  A
C272       C1734   1.464   1_455  S
C273        H275   1.082       .  S
N276        N277   1.321       .  A
N276        C280   1.343       .  A
N277        C278   1.345       .  A
C278        C279   1.389       .  A
C278        H281   1.081       .  S
C279        C280   1.387       .  A
C279        C669   1.487       .  S
C280        H282   1.081       .  S
O283       Cu291   1.994       .  S
O283        C293   1.277       .  A
O284       Cu291   1.994       .  S
O284        C294   1.275       .  A
O285       Cu291   2.003       .  S
O285        C295   1.276       .  A
O286       Cu291   2.008       .  S
O286        C296   1.278       .  A
O287       Cu292   2.001       .  S
O287        C296   1.276       .  A
O288       Cu292   2.002       .  S
O288        C295   1.277       .  A
O289       Cu292   1.998       .  S
O289        C294   1.277       .  A
O290       Cu292   1.998       .  S
O290        C293   1.276       .  A
Cu291      Cu292   2.379       .  S
C295        C854   1.464       .  S
O297      Cu1853   1.999       .  S
O297        C307   1.276       .  A
O298       Cu305   1.998       .  S
O298        C308   1.277       .  A
O299       Cu305   2.004       .  S
O299       C1857   1.278       .  A
O300      Cu1853   2.001       .  S
O300        C310   1.276       .  A
O301       Cu306   2.005       .  S
O301        C310   1.278       .  A
O302       Cu306   2.002       .  S
O302        C309   1.276   1_455  A
O303       Cu306   2.003       .  S
O303       C1856   1.276       .  A
O304       Cu306   2.003       .  S
O304        C307   1.278       .  A
Cu305      O1845   1.999       .  S
Cu305      O1848   2.001       .  S
Cu305     Cu1854   2.378       .  S
Cu306     Cu1853   2.378       .  S
C308       C1934   1.462       .  S
C308       O1851   1.276       .  A
C309        C314   1.464       .  S
C309       O1847   1.278       .  A
N311       N1860   1.323       .  A
N311        C315   1.346       .  A
N311      Cu1867   2.077       .  S
N312       N1859   1.323       .  A
N312       C1861   1.342       .  A
N312       Cu318   2.060       .  S
C313       N1860   1.342       .  A
C313        C314   1.379       .  A
C313       H1864   1.082       .  S
C314        C315   1.383       .  A
C315        H317   1.082       .  S
H316       C1861   1.082       .  S
Cu318       N321   2.060       .  S
Cu319       N329   2.077       .  S
Cu319      N1859   2.077       .  S
Cu320       N322   2.068       .  S
Cu320       N328   2.069       .  S
N321        N322   1.321       .  A
N321        C325   1.342       .  A
N322        C323   1.345       .  A
C323        C324   1.382       .  A
C323        H326   1.082       .  S
C324        C325   1.381       .  A
C325        H327   1.082       .  S
N328        N329   1.321       .  A
N328        C332   1.343       .  A
N329        C330   1.346       .  A
C330        C331   1.388       .  A
C330       H1881   1.082       .  S
C331        C332   1.386       .  A
C331        C645   1.484       .  S
C332        H334   1.081       .  S
H333       C1878   1.082       .  S
N335        N336   1.322       .  A
N335        C339   1.346       .  A
N335       Cu343   2.077       .  S
N336        C337   1.343       .  A
N336       Cu342   2.059       .  S
C337        C338   1.380       .  A
C337        H340   1.082       .  S
C338        C339   1.384       .  A
C338        C371   1.466       .  S
C339        H341   1.082       .  S
Cu342       N345   2.058       .  S
Cu343       N353   2.078       .  S
Cu344       N346   2.071       .  S
Cu344       N352   2.072       .  S
N345        N346   1.321       .  A
N345        C349   1.342       .  A
N346       C1895   1.345       .  A
C347       N1894   1.345       .  A
C347        C348   1.383       .  A
C347        H350   1.082       .  S
C348       C1897   1.380       .  A
C349       C1896   1.380       .  A
C349        H351   1.082       .  S
N352        N353   1.322       .  A
N352        C356   1.344       .  A
N353        C354   1.345       .  A
C354        C355   1.387       .  A
C354        H357   1.082       .  S
C355        C356   1.386       .  A
C355        C642   1.484       .  S
C356        H358   1.081       .  S
O359       Cu367   2.000       .  S
O359        C369   1.278       .  A
O360       Cu367   1.996       .  S
O360        C370   1.275       .  A
O361       Cu367   2.004       .  S
O361        C371   1.276       .  A
O362       Cu367   2.007       .  S
O362        C372   1.278       .  A
O363       Cu368   2.005       .  S
O363        C372   1.277       .  A
O364       Cu368   2.009       .  S
O364        C371   1.278       .  A
O365       Cu368   1.995       .  S
O365        C370   1.277       .  A
O366       Cu368   1.994       .  S
O366        C369   1.275       .  A
Cu367      Cu368   2.379       .  S
C370        C400   1.458       .  S
N373        N374   1.322       .  A
N373       C1151   1.345       .  A
N373       Cu381   2.072       .  S
N374        C375   1.341       .  A
N374       Cu380   2.055       .  S
C375       C1150   1.378       .  A
C375        H378   1.082       .  S
C376        C377   1.383       .  A
C376       C1149   1.378       .  A
C376       C1268   1.462       .  S
C377       N1147   1.345       .  A
C377        H379   1.082       .  S
Cu380       N383   2.055       .  S
Cu381       N391   2.072       .  S
Cu382       N390   2.067       .  S
Cu382      N1932   2.066       .  S
N383       N1932   1.321       .  A
N383       C1935   1.341       .  A
N384       N1931   1.321       .  A
N384        C385   1.345       .  A
N384      Cu1930   2.066       .  S
C385        C386   1.382       .  A
C385        H388   1.082   1_655  S
C386        C387   1.379       .  A
C386       C1856   1.462   1_655  S
C387       N1931   1.341       .  A
C387       H1937   1.082       .  S
H389       C1935   1.082       .  S
N390        N391   1.321       .  A
N390        C394   1.342       .  A
N391        C392   1.344       .  A
C392        C393   1.388       .  A
C392        H395   1.080       .  S
C393        C394   1.387       .  A
C393        C621   1.485       .  S
C394       H1944   1.081       .  S
H396       C1942   1.081       .  S
N397       N1172   1.321       .  A
N397        C401   1.344       .  A
N397      Cu1179   2.065       .  S
N398       N1171   1.321       .  A
N398       C1173   1.339       .  A
N398       Cu404   2.045       .  S
C399       N1172   1.339       .  A
C399        C400   1.377       .  A
C399        H402   1.082       .  S
C400        C401   1.382       .  A
C401        H403   1.082       .  S
Cu404      N1955   2.046       .  S
Cu405       N415   2.065       .  S
Cu405      N1171   2.065       .  S
Cu406       N408   2.067   1_655  S
Cu406      N1962   2.069       .  S
N407        N408   1.320   1_655  A
N407        C411   1.340   1_655  A
N407      Cu1952   2.046       .  S
N408        C409   1.344       .  A
C409        C410   1.383       .  A
C409        H412   1.082       .  S
C410        C411   1.378       .  A
C410        C555   1.459       .  S
C411        H413   1.082       .  S
N414        N415   1.321       .  A
N414        C418   1.343       .  A
N414      Cu1954   2.069       .  S
N415        C416   1.342       .  A
C416        C417   1.387       .  A
C416        H419   1.080       .  S
C417        C418   1.388       .  A
C417        C618   1.484       .  S
C418       H1968   1.080       .  S
H420       C1966   1.080       .  S
O421       Cu429   1.998       .  S
O421        C431   1.276       .  A
O422       Cu429   2.002       .  S
O422        C432   1.277       .  A
O423       Cu429   1.997       .  S
O423        C433   1.277       .  A
O424       Cu429   1.989       .  S
O424        C434   1.275       .  A
O425       Cu430   1.996       .  S
O425        C434   1.277       .  A
O426       Cu430   1.996       .  S
O426        C433   1.275       .  A
O427       Cu430   2.000       .  S
O427        C432   1.276       .  A
O428       Cu430   2.007       .  S
O428        C431   1.278       .  A
Cu429      Cu430   2.380       .  S
C431       C1676   1.463       .  S
C432        C462   1.462       .  S
N435        N436   1.322       .  A
N435       C1213   1.346       .  A
N435       Cu443   2.071       .  S
N436        C437   1.342       .  A
N436       Cu442   2.062       .  S
C437       C1212   1.380       .  A
C437        H440   1.082       .  S
C438        C439   1.383       .  A
C438       C1211   1.380       .  A
C438       C1270   1.464       .  S
C439       N1209   1.346       .  A
C439        H441   1.082       .  S
Cu442       N445   2.063       .  S
Cu443       N453   2.071       .  S
Cu444       N446   2.065       .  S
Cu444       N452   2.066       .  S
N445        N446   1.321       .  A
N445        C449   1.343       .  A
N446        C447   1.344       .  A
C447        C448   1.382       .  A
C447        H450   1.082       .  S
C448        C449   1.381       .  A
C449        H451   1.082       .  S
N452        N453   1.321       .  A
N452        C456   1.343       .  A
N453        C454   1.343       .  A
C454        C455   1.387       .  A
C454        H457   1.081       .  S
C455        C456   1.386       .  A
C455        C594   1.481       .  S
C456        H458   1.081       .  S
N459        N460   1.322       .  A
N459        C463   1.344       .  A
N459       Cu467   2.069       .  S
N460        C461   1.342       .  A
N460       Cu466   2.059       .  S
C461        C462   1.379       .  A
C461        H464   1.082       .  S
C462        C463   1.382       .  A
C463        H465   1.082       .  S
Cu466       N469   2.058       .  S
Cu467       N477   2.070       .  S
Cu468       N470   2.065       .  S
Cu468       N476   2.065       .  S
N469        N470   1.321       .  A
N469        C473   1.342       .  A
N470        C471   1.344       .  A
C471        C472   1.382       .  A
C471        H474   1.082       .  S
C472        C473   1.380       .  A
C472        C958   1.463       .  S
C473        H475   1.082       .  S
N476        N477   1.321       .  A
N476        C480   1.341       .  A
N477        C478   1.344       .  A
C478        C479   1.388       .  A
C478        H481   1.081       .  S
C479        C480   1.386       .  A
C479        C597   1.482       .  S
C480        H482   1.081       .  S
O483       Cu491   2.003       .  S
O483        C493   1.278       .  A
O484      Cu1265   1.999   1_545  S
O484        C494   1.276       .  A
O485      Cu1265   2.002   1_545  S
O485        C495   1.276       .  A
O486       Cu491   2.004       .  S
O486        C496   1.277       .  A
O487       Cu492   2.004   1_565  S
O487       C1270   1.276       .  A
O488       Cu492   2.006       .  S
O488        C495   1.278       .  A
O489       Cu492   2.003       .  S
O489        C494   1.278       .  A
O490       Cu492   2.001   1_565  S
O490       C1267   1.276       .  A
Cu491      O1258   1.999       .  S
Cu491      O1259   2.002       .  S
Cu491     Cu1266   2.378       .  S
Cu492     Cu1265   2.378   1_545  S
C493        C964   1.462       .  S
C493       O1264   1.276       .  A
C494       C1150   1.462       .  S
C495        C500   1.464       .  S
C496       C1212   1.464       .  S
C496       O1261   1.276       .  A
N497        N498   1.322       .  A
N497        C501   1.346       .  A
N497       Cu505   2.073       .  S
N498        C499   1.342       .  A
N498       Cu504   2.058       .  S
C499        C500   1.379       .  A
C499        H502   1.082       .  S
C500        C501   1.384       .  A
C501        H503   1.082       .  S
Cu504       N507   2.058       .  S
Cu505       N515   2.073       .  S
Cu506       N508   2.065       .  S
Cu506       N514   2.065       .  S
N507        N508   1.321       .  A
N507        C511   1.342       .  A
N508        C509   1.344       .  A
C509        C510   1.383       .  A
C509        H512   1.082       .  S
C510        C511   1.380       .  A
C511        H513   1.082       .  S
N514        N515   1.321       .  A
N514        C518   1.341       .  A
N515        C516   1.344       .  A
C516        C517   1.388       .  A
C516        H519   1.081       .  S
C517        C518   1.386       .  A
C517        C570   1.483       .  S
C518        H520   1.081       .  S
N521        N522   1.322       .  A
N521        C525   1.345       .  A
N521       Cu529   2.070       .  S
N522        C523   1.343       .  A
N522       Cu528   2.061       .  S
C523        C524   1.380       .  A
C523        H526   1.082       .  S
C524        C525   1.382       .  A
C524        C558   1.463       .  S
C525        H527   1.082       .  S
Cu528       N531   2.061       .  S
Cu529       N539   2.070       .  S
Cu530       N532   2.066       .  S
Cu530       N538   2.066       .  S
N531        N532   1.321       .  A
N531        C535   1.342       .  A
N532        C533   1.344   1_545  A
C533        C534   1.382       .  A
C533        H536   1.082       .  S
C534        C535   1.380   1_565  A
C534        C849   1.463       .  S
C535        H537   1.082       .  S
N538        N539   1.321       .  A
N538        C542   1.342       .  A
N539        C540   1.344       .  A
C540        C541   1.388       .  A
C540        H543   1.081       .  S
C541        C542   1.386       .  A
C541        C573   1.483       .  S
C542        H544   1.081       .  S
O545       Cu553   2.000       .  S
O545        C555   1.277       .  A
O546       Cu553   2.000       .  S
O546        C556   1.276       .  A
O547       Cu553   1.997       .  S
O547        C557   1.275       .  A
O548       Cu553   2.003       .  S
O548        C558   1.277       .  A
O549       Cu554   2.002       .  S
O549        C558   1.276       .  A
O550       Cu554   2.004       .  S
O550        C557   1.278       .  A
O551       Cu554   1.996       .  S
O551        C556   1.277       .  A
O552       Cu554   1.995       .  S
O552        C555   1.275       .  A
Cu553      Cu554   2.379       .  S
C559        C560   1.398       .  A
C559        C564   1.403       .  A
C559        H575   1.084       .  S
C560        C561   1.403       .  A
C560        H576   1.084       .  S
C561        C571   1.402       .  A
C561        C562   1.411       .  A
C562        C568   1.410       .  A
C562        C563   1.410       .  A
C563        C565   1.411       .  A
C563        C564   1.410       .  A
C564        C572   1.400       .  A
C565        C574   1.401       .  A
C565        C566   1.403       .  A
C566        C567   1.398       .  A
C566        H577   1.084       .  S
C567        C568   1.403       .  A
C567        H578   1.084       .  S
C568        C569   1.400       .  A
C569        C570   1.408       .  A
C569        H579   1.082       .  S
C570        C571   1.407       .  A
C571        H580   1.082       .  S
C572        C573   1.408       .  A
C572        H581   1.082       .  S
C573        C574   1.407       .  A
C574        H582   1.082       .  S
C583        C584   1.398       .  A
C583        C588   1.403       .  A
C583        H599   1.084       .  S
C584        C585   1.403       .  A
C584        H600   1.083       .  S
C585        C595   1.401       .  A
C585        C586   1.410       .  A
C586        C592   1.411       .  A
C586        C587   1.410       .  A
C587        C589   1.410       .  A
C587        C588   1.411       .  A
C588        C596   1.402       .  A
C589        C598   1.400       .  A
C589        C590   1.403       .  A
C590        C591   1.397       .  A
C590       H1375   1.083       .  S
C591        C592   1.403       .  A
C591       H1376   1.083       .  S
C592        C593   1.401       .  A
C593        C594   1.407       .  A
C593        H603   1.082       .  S
C594        C595   1.407       .  A
C595        H604   1.082       .  S
C596        C597   1.407       .  A
C596        H605   1.082       .  S
C597        C598   1.408       .  A
C598        H606   1.082       .  S
H601       C1364   1.083       .  S
H602       C1365   1.083       .  S
C607        C608   1.398       .  A
C607       C2160   1.403       .  A
C607        H623   1.084   1_655  S
C608       C2157   1.403       .  A
C608        H624   1.083   1_655  S
C609        C619   1.402       .  A
C609        C610   1.410       .  A
C609       C2156   1.403       .  A
C610        C616   1.410       .  A
C610        C611   1.410       .  A
C611        C613   1.410       .  A
C611        C612   1.410       .  A
C612        C620   1.401       .  A
C612       C2155   1.403       .  A
C613        C622   1.401       .  A
C613        C614   1.403       .  A
C614        C615   1.397       .  A
C614       H1399   1.083       .  S
C615        C616   1.403       .  A
C615       H1400   1.084       .  S
C616        C617   1.400       .  A
C617        C618   1.408       .  A
C617        H627   1.080       .  S
C618        C619   1.408       .  A
C619        H628   1.081       .  S
C620        C621   1.408       .  A
C620        H629   1.081       .  S
C621        C622   1.408       .  A
C622        H630   1.081       .  S
H625       C1388   1.083       .  S
H626       C1389   1.084       .  S
C631        C632   1.399       .  A
C631        C636   1.403       .  A
C631       H2195   1.084       .  S
C632        C633   1.404       .  A
C632       H2196   1.083       .  S
C633        C643   1.403       .  A
C633        C634   1.410       .  A
C634        C640   1.411       .  A
C634        C635   1.412       .  A
C635        C637   1.410       .  A
C635        C636   1.411       .  A
C636        C644   1.403       .  A
C637        C646   1.402       .  A
C637        C638   1.404       .  A
C638        C639   1.399       .  A
C638        H649   1.083       .  S
C639        C640   1.403       .  A
C639        H650   1.084       .  S
C640        C641   1.403       .  A
C641        C642   1.407       .  A
C641        H651   1.083       .  S
C642        C643   1.408       .  A
C643        H652   1.083       .  S
C644        C645   1.407       .  A
C644       H2201   1.084       .  S
C645        C646   1.408       .  A
C646        H654   1.082       .  S
H647       C2179   1.084   1_455  S
H648       C2180   1.083   1_455  S
H653       C2192   1.083       .  S
C655        C656   1.399       .  A
C655        C660   1.403       .  A
C655        H671   1.083       .  S
C656        C657   1.404       .  A
C656        H672   1.084       .  S
C657        C667   1.403       .  A
C657        C658   1.410       .  A
C658        C664   1.410       .  A
C658        C659   1.412       .  A
C659        C661   1.410       .  A
C659        C660   1.411       .  A
C660        C668   1.403       .  A
C661        C670   1.402       .  A
C661        C662   1.404       .  A
C662        C663   1.399       .  A
C662        H673   1.084       .  S
C663        C664   1.404       .  A
C663        H674   1.084       .  S
C664        C665   1.403       .  A
C665        C666   1.409       .  A
C665        H675   1.082       .  S
C666        C667   1.409       .  A
C667        H676   1.082       .  S
C668        C669   1.408       .  A
C668        H677   1.082       .  S
C669        C670   1.409       .  A
C670        H678   1.082       .  S
C679        C680   1.397       .  A
C679        C684   1.403       .  A
C679        H695   1.084       .  S
C680        C681   1.403       .  A
C680        H696   1.084       .  S
C681        C691   1.400       .  A
C681        C682   1.410       .  A
C682        C688   1.411       .  A
C682        C683   1.410       .  A
C683        C685   1.410       .  A
C683        C684   1.411       .  A
C684        C692   1.401       .  A
C685        C694   1.401       .  A
C685        C686   1.403       .  A
C686        C687   1.398       .  A
C686        H697   1.083       .  S
C687        C688   1.403       .  A
C687        H698   1.085       .  S
C688        C689   1.402       .  A
C689        C690   1.408       .  A
C689        H699   1.083       .  S
C690        C691   1.408       .  A
C691        H700   1.082       .  S
C692        C693   1.407       .  A
C692        H701   1.083       .  S
C693        C694   1.408       .  A
C694        H702   1.081       .  S
C703        C704   1.399       .  A
C703        C708   1.403       .  A
C703        H719   1.083       .  S
C704        C705   1.404       .  A
C704        H720   1.083       .  S
C705        C715   1.402       .  A
C705        C706   1.410       .  A
C706        C707   1.411       .  A
C706       C2260   1.411       .  A
C707        C708   1.411       .  A
C707       C2257   1.410       .  A
C708        C716   1.403   1_556  A
C709        C718   1.401   1_556  A
C709        C710   1.403       .  A
C709       C2255   1.410       .  A
C710        C711   1.398       .  A
C710        H721   1.083       .  S
C711        C712   1.403       .  A
C711        H722   1.083       .  S
C712        C713   1.402       .  A
C712       C2254   1.411       .  A
C713       C2262   1.408       .  A
C713        H723   1.082       .  S
C714        C715   1.410       .  A
C714       C2261   1.408       .  A
C715        H724   1.081       .  S
C716        C717   1.408   1_455  A
C716        H725   1.082       .  S
C717       C2266   1.409   1_655  A
C718       C2265   1.409       .  A
C718        H726   1.082       .  S
C727        C728   1.398   1_545  A
C727       C1506   1.403   1_545  A
C727        H743   1.083       .  S
C728        C729   1.403       .  A
C728        H744   1.084       .  S
C729        C739   1.402       .  A
C729       C1504   1.411       .  A
C730        C736   1.410       .  A
C730        C731   1.411       .  A
C730       C1503   1.411       .  A
C731        C733   1.411       .  A
C731        C732   1.410       .  A
C732        C740   1.402   1_556  A
C732       C1501   1.403       .  A
C733        C742   1.402   1_556  A
C733        C734   1.403       .  A
C734        C735   1.398       .  A
C734        H745   1.083       .  S
C735        C736   1.404       .  A
C735        H746   1.084       .  S
C736        C737   1.402       .  A
C737       C1512   1.408       .  A
C737        H747   1.082       .  S
C738        C739   1.407       .  A
C738       C1511   1.408       .  A
C739        H748   1.083       .  S
C740        C741   1.408       .  A
C740        H749   1.082       .  S
C741        C742   1.407       .  A
C742        H750   1.083       .  S
C751        C752   1.398       .  A
C751        C756   1.403       .  A
C751        H767   1.085       .  S
C752        C753   1.403       .  A
C752        H768   1.084       .  S
C753        C763   1.402       .  A
C753        C754   1.411       .  A
C754        C760   1.410       .  A
C754        C755   1.410       .  A
C755        C757   1.411       .  A
C755        C756   1.410       .  A
C756        C764   1.401   1_556  A
C757        C766   1.401   1_556  A
C757        C758   1.403       .  A
C758        C759   1.397       .  A
C758        H769   1.084       .  S
C759        C760   1.403       .  A
C759        H770   1.084       .  S
C760        C761   1.400       .  A
C761        C762   1.408       .  A
C761        H771   1.083       .  S
C762        C763   1.407       .  A
C763        H772   1.083       .  S
C764        C765   1.408       .  A
C764        H773   1.083       .  S
C765        C766   1.407       .  A
C766        H774   1.083       .  S
N775        N776   1.321       .  A
N775        C779   1.345       .  A
N775       Cu783   2.071       .  S
N776        C777   1.339       .  A
N776       Cu782   2.044       .  S
C777        C778   1.376       .  A
C777        H780   1.082       .  S
C778        C779   1.383       .  A
C778       C1068   1.458       .  S
C779        H781   1.082       .  S
Cu782       N785   2.044       .  S
Cu783       N793   2.072       .  S
Cu784       N786   2.060       .  S
Cu784       N792   2.062       .  S
N785        N786   1.320       .  A
N785        C789   1.340       .  A
N786        C787   1.342       .  A
C787        C788   1.381       .  A
C787        H790   1.082       .  S
C788        C789   1.377       .  A
C788       C1208   1.455       .  S
C789        H791   1.082       .  S
N792        N793   1.321       .  A
N792        C796   1.342       .  A
N793        C794   1.344       .  A
C794        C795   1.388       .  A
C794        H797   1.082       .  S
C795        C796   1.385       .  A
C795       C1539   1.481       .  S
C796        H798   1.082       .  S
N799        N800   1.322       .  A
N799        C803   1.345       .  A
N799       Cu807   2.073       .  S
N800        C801   1.339       .  A
N800       Cu806   2.046       .  S
C801        C802   1.376       .  A
C801        H804   1.082       .  S
C802        C803   1.384       .  A
C802       C1143   1.459       .  S
C803        H805   1.082       .  S
Cu806       N809   2.046       .  S
Cu807       N817   2.073       .  S
Cu808       N810   2.068       .  S
Cu808       N816   2.069       .  S
N809        N810   1.320       .  A
N809        C813   1.340       .  A
N810        C811   1.345       .  A
C811        C812   1.383       .  A
C811        H814   1.082       .  S
C812        C813   1.378       .  A
C812       C1330   1.460       .  S
C813        H815   1.082       .  S
N816        N817   1.322       .  A
N816        C820   1.342       .  A
N817        C818   1.344       .  A
C818        C819   1.387       .  A
C818        H821   1.082       .  S
C819        C820   1.386       .  A
C819       C1536   1.482       .  S
C820        H822   1.081       .  S
O823       Cu831   2.007       .  S
O823        C833   1.278       .  A
O824       Cu831   2.008       .  S
O824        C834   1.277       .  A
O825       Cu831   1.997       .  S
O825        C835   1.276       .  A
O826       Cu831   2.000       .  S
O826        C836   1.276       .  A
O827       Cu832   2.004       .  S
O827        C836   1.277       .  A
O828       Cu832   2.007       .  S
O828        C835   1.278       .  A
O829       Cu832   1.998       .  S
O829        C834   1.276       .  A
O830       Cu832   2.000       .  S
O830        C833   1.276       .  A
Cu831      Cu832   2.378       .  S
C833       C1022   1.464       .  S
C834       C1098   1.464       .  S
C835       C1222   1.463       .  S
C836       C1284   1.463       .  S
O837       Cu845   2.003       .  S
O837        C847   1.277       .  A
O838       Cu845   2.006       .  S
O838        C848   1.277       .  A
O839       Cu845   2.001       .  S
O839        C849   1.277       .  A
O840       Cu845   1.999       .  S
O840        C850   1.276       .  A
O841       Cu846   1.999       .  S
O841        C850   1.277       .  A
O842       Cu846   2.002       .  S
O842        C849   1.277       .  A
O843       Cu846   1.999       .  S
O843        C848   1.277       .  A
O844       Cu846   2.001       .  S
O844        C847   1.276       .  A
Cu845      Cu846   2.378       .  S
C847       C1122   1.463       .  S
C848        C888   1.464       .  S
C850        C936   1.461       .  S
N851        N852   1.322       .  A
N851        C855   1.346       .  A
N851       Cu859   2.073       .  S
N852        C853   1.342       .  A
N852       Cu858   2.059       .  S
C853        C854   1.379       .  A
C853        H856   1.082       .  S
C854        C855   1.383       .  A
C855        H857   1.082       .  S
Cu858       N861   2.059       .  S
Cu859       N869   2.074       .  S
Cu860       N862   2.068       .  S
Cu860       N868   2.070       .  S
N861        N862   1.321       .  A
N861        C865   1.343       .  A
N862        C863   1.344       .  A
C863        C864   1.383       .  A
C863        H866   1.082       .  S
C864        C865   1.380       .  A
N868        N869   1.322       .  A
N868        C872   1.343       .  A
N869        C870   1.344       .  A
C870        C871   1.387       .  A
C870        H873   1.081       .  S
C871        C872   1.386       .  A
C871       C1515   1.484       .  S
C872        H874   1.081       .  S
N875        N876   1.322       .  A
N875        C879   1.346       .  A
N876        C877   1.343       .  A
N876       Cu882   2.064       .  S
C877        C878   1.380       .  A
C877        H880   1.082       .  S
C878        C879   1.383       .  A
C878       C1146   1.466       .  S
C879        H881   1.082       .  S
Cu882       N885   2.064       .  S
Cu883       N893   2.076       .  S
Cu884       N892   2.067       .  S
N885        N886   1.321       .  A
N885        C889   1.343       .  A
N886        C887   1.344       .  A
C887        C888   1.382       .  A
C887        H890   1.082       .  S
C888        C889   1.381       .  A
C889        H891   1.082       .  S
N892        N893   1.321       .  A
N892        C896   1.343       .  A
N893        C894   1.345       .  A
C894        C895   1.388       .  A
C894        H897   1.081       .  S
C895        C896   1.386       .  A
C895       C1512   1.484       .  S
C896        H898   1.081       .  S
N899        N900   1.323       .  A
N899        C903   1.345       .  A
N899       Cu907   2.076       .  S
N900        C901   1.343       .  A
N900       Cu906   2.058       .  S
C901        C902   1.379       .  A
C901       H2452   1.082       .  S
C902        C903   1.383       .  A
C902       C2753   1.463       .  S
C903        H905   1.082       .  S
H904       C2449   1.082       .  S
Cu906       N909   2.057       .  S
Cu907       N917   2.076       .  S
Cu908       N910   2.067       .  S
Cu908       N916   2.067       .  S
N909        N910   1.321       .  A
N909        C913   1.342       .  A
N910        C911   1.344       .  A
C911        C912   1.383       .  A
C911        H914   1.082       .  S
C912        C913   1.380       .  A
C912       C2505   1.463       .  S
C913       H2463   1.082       .  S
H915       C2461   1.082       .  S
N916        N917   1.321       .  A
N916        C920   1.342       .  A
N917        C918   1.346       .  A
C918        C919   1.390       .  A
C918        H921   1.081       .  S
C919        C920   1.387       .  A
C919       C1491   1.487       .  S
C920        H922   1.081       .  S
N923        N924   1.322       .  A
N923        C927   1.345       .  A
N923       Cu931   2.076       .  S
N924        C925   1.341       .  A
N924       Cu930   2.053       .  S
C925        C926   1.378       .  A
C925        H928   1.082       .  S
C926        C927   1.383       .  A
C926       C1331   1.462       .  S
C927        H929   1.082       .  S
Cu930       N933   2.052       .  S
Cu931       N941   2.076       .  S
Cu932       N934   2.066       .  S
Cu932       N940   2.066       .  S
N933        N934   1.321       .  A
N933        C937   1.341       .  A
N934        C935   1.344       .  A
C935        C936   1.382       .  A
C935        H938   1.082       .  S
C936        C937   1.379       .  A
C937        H939   1.082       .  S
N940        N941   1.321       .  A
N940        C944   1.342       .  A
N941        C942   1.345       .  A
C942        C943   1.390       .  A
C942        H945   1.081       .  S
C943        C944   1.387       .  A
C943       C1488   1.488       .  S
C944        H946   1.081       .  S
O947       Cu955   2.002       .  S
O947        C957   1.276       .  A
O948       Cu955   1.999       .  S
O948        C958   1.277       .  A
O949       Cu955   2.003       .  S
O949        C959   1.277       .  A
O950       Cu955   2.002       .  S
O950        C960   1.277       .  A
O951       Cu956   2.004       .  S
O951        C960   1.277       .  A
O952       Cu956   2.003       .  S
O952        C959   1.277       .  A
O953       Cu956   2.004       .  S
O953        C958   1.277       .  A
O954       Cu956   2.000       .  S
O954        C957   1.277       .  A
Cu955      Cu956   2.378       .  S
C957       C2460   1.463       .  S
C960       C2594   1.464       .  S
N961        N962   1.321       .  A
N961       Cu969   2.072       .  S
N962        C963   1.341       .  A
N962       Cu968   2.051       .  S
C963        H966   1.082       .  S
C964        C965   1.384       .  A
C965        H967   1.082       .  S
Cu968       N971   2.051       .  S
Cu969       N979   2.073       .  S
Cu970       N972   2.069       .  S
Cu970       N978   2.070       .  S
N971        N972   1.321       .  A
N971        C975   1.341       .  A
N972        C973   1.345       .  A
C973        C974   1.383       .  A
C973       H2524   1.082       .  S
C974        C975   1.378       .  A
C974       C1081   1.462       .  S
C975        H977   1.082       .  S
H976       C2521   1.082       .  S
N978        N979   1.322       .  A
N978        C982   1.342       .  A
N979        C980   1.344       .  A
C980        C981   1.388       .  A
C980        H983   1.081       .  S
C981        C982   1.387       .  A
C981       C1464   1.485       .  S
C982        H984   1.081       .  S
N985        N986   1.321       .  A
N985       C2537   1.344       .  A
N985       Cu993   2.067       .  S
N986        C987   1.340       .  A
N986       Cu992   2.047       .  S
C987       C2536   1.377       .  A
C987        H990   1.082       .  S
C988       C2535   1.377       .  A
C988        C989   1.382       .  A
C988       C1207   1.459       .  S
C989       N2533   1.344       .  A
C989        H991   1.082       .  S
Cu992       N995   2.046       .  S
Cu993      N1003   2.068       .  S
Cu994       N996   2.066       .  S
Cu994      N1002   2.067       .  S
N995        N996   1.321       .  A
N995        C999   1.339       .  A
C997        C998   1.382       .  A
C997       H1000   1.082       .  S
C998       C1067   1.459       .  S
C999       H1001   1.082       .  S
N1002      N1003   1.321       .  A
N1002      C1006   1.342       .  A
N1003      C1004   1.343       .  A
C1004      C1005   1.387       .  A
C1004      H1007   1.081       .  S
C1005      C1006   1.387       .  A
C1005      C1467   1.484       .  S
C1006      H1008   1.081       .  S
N1009      N1010   1.321       .  A
N1009      C1013   1.345       .  A
N1009     Cu1017   2.073       .  S
N1010      C1011   1.342       .  A
N1010     Cu1016   2.056       .  S
C1011      C1012   1.379       .  A
C1011      H1014   1.082       .  S
C1012      C1013   1.384       .  A
C1012      C1084   1.464       .  S
C1013      H1015   1.082       .  S
Cu1016     N1019   2.056       .  S
Cu1017     N1027   2.074       .  S
Cu1018     N1020   2.075       .  S
Cu1018     N1026   2.075       .  S
N1019      N1020   1.321       .  A
N1019      C1023   1.342       .  A
N1020      C1021   1.345       .  A
C1021      C1022   1.384       .  A
C1021      H1024   1.082       .  S
C1022      C1023   1.379       .  A
C1023      H1025   1.082       .  S
N1026      N1027   1.321       .  A
N1026      C1030   1.344       .  A
N1027      C1028   1.344       .  A
C1028      C1029   1.388       .  A
C1028      H1031   1.081       .  S
C1029      C1030   1.388       .  A
C1029      C1440   1.487       .  S
C1030      H1032   1.081       .  S
N1033      N1034   1.322       .  A
N1033      C1037   1.345       .  A
N1033     Cu1041   2.077       .  S
N1034      C1035   1.342       .  A
N1034     Cu1040   2.059       .  S
C1035      C1036   1.379       .  A
C1035      H1038   1.082       .  S
C1036      C1037   1.384       .  A
C1036      C1070   1.464       .  S
C1037      H1039   1.082       .  S
Cu1040     N1043   2.058       .  S
Cu1041     N1051   2.077       .  S
Cu1042     N1044   2.068       .  S
Cu1042     N1050   2.069       .  S
N1043      N1044   1.321       .  A
N1043      C1047   1.342       .  A
N1044      C1045   1.345       .  A
C1045      C1046   1.383       .  A
C1045      H1048   1.082       .  S
C1046      C1047   1.380       .  A
C1046      C2508   1.464   1_455  S
C1047      H1049   1.082       .  S
N1050      N1051   1.321       .  A
N1050      C1054   1.343       .  A
N1051      C1052   1.345       .  A
C1052      C1053   1.389       .  A
C1052      H1055   1.081       .  S
C1053      C1054   1.387       .  A
C1053      C1443   1.487       .  S
C1054      H1056   1.081       .  S
O1057     Cu1065   1.994       .  S
O1057      C1067   1.277       .  A
O1058     Cu1065   1.994       .  S
O1058      C1068   1.275       .  A
O1059     Cu1065   2.003       .  S
O1059      C1069   1.276       .  A
O1060     Cu1065   2.008       .  S
O1060      C1070   1.278       .  A
O1061     Cu1066   2.001       .  S
O1061      C1070   1.276       .  A
O1062     Cu1066   2.002       .  S
O1062      C1069   1.277       .  A
O1063     Cu1066   1.998       .  S
O1063      C1068   1.277       .  A
O1064     Cu1066   1.998       .  S
O1064      C1067   1.276       .  A
Cu1065    Cu1066   2.379       .  S
O1071     Cu2627   1.999       .  S
O1071      C1081   1.276       .  A
O1072     Cu1079   1.998       .  S
O1072      C1082   1.277       .  A
O1073     Cu1079   2.004       .  S
O1073      C2631   1.278       .  A
O1074     Cu2627   2.001       .  S
O1074      C1084   1.276       .  A
O1075     Cu1080   2.005       .  S
O1075      C1084   1.278       .  A
O1076     Cu1080   2.002       .  S
O1076      C1083   1.276   1_455  A
O1077     Cu1080   2.003       .  S
O1077      C2630   1.276       .  A
O1078     Cu1080   2.003       .  S
O1078      C1081   1.278       .  A
Cu1079     O2619   1.999       .  S
Cu1079     O2622   2.001       .  S
Cu1079    Cu2628   2.378       .  S
Cu1080    Cu2627   2.378       .  S
C1082      C2708   1.462       .  S
C1082      O2625   1.276       .  A
C1083      C1088   1.464       .  S
C1083      O2621   1.278       .  A
N1085      N2634   1.323       .  A
N1085      C1089   1.346       .  A
N1085     Cu2641   2.077       .  S
N1086      N2633   1.323       .  A
N1086      C2635   1.342       .  A
N1086     Cu1092   2.060       .  S
C1087      N2634   1.342       .  A
C1087      C1088   1.379       .  A
C1087      H2638   1.082       .  S
C1088      C1089   1.383       .  A
C1089      H1091   1.082       .  S
H1090      C2635   1.082       .  S
Cu1092     N1095   2.060       .  S
Cu1093     N2633   2.077       .  S
Cu1093     N1103   2.077       .  S
Cu1094     N1096   2.068       .  S
Cu1094     N1102   2.069       .  S
N1095      N1096   1.321       .  A
N1095      C1099   1.342       .  A
N1096      C1097   1.345       .  A
C1097      C1098   1.382       .  A
C1097      H1100   1.082       .  S
C1098      C1099   1.381       .  A
C1099      H1101   1.082       .  S
N1102      N1103   1.321       .  A
N1102      C1106   1.343       .  A
N1103      C1104   1.345       .  A
C1104      C1105   1.388       .  A
C1104      H2655   1.082       .  S
C1105      C1106   1.386       .  A
C1105      C1419   1.484       .  S
C1106      H1108   1.081       .  S
H1107      C2652   1.082       .  S
N1109      N1110   1.322       .  A
N1109      C1113   1.346       .  A
N1109     Cu1117   2.077       .  S
N1110      C1111   1.343       .  A
N1110     Cu1116   2.059       .  S
C1111      C1112   1.380       .  A
C1111      H1114   1.082       .  S
C1112      C1113   1.384       .  A
C1112      C1145   1.466       .  S
C1113      H1115   1.082       .  S
Cu1116     N1119   2.058       .  S
Cu1117     N1127   2.078       .  S
Cu1118     N1120   2.071       .  S
Cu1118     N1126   2.072       .  S
N1119      N1120   1.321       .  A
N1119      C1123   1.342       .  A
N1120      C2669   1.345       .  A
C1121      N2668   1.345       .  A
C1121      C1122   1.383       .  A
C1121      H1124   1.082       .  S
C1122      C2671   1.380       .  A
C1123      C2670   1.380       .  A
C1123      H1125   1.082       .  S
N1126      N1127   1.322       .  A
N1126      C1130   1.344       .  A
N1127      C1128   1.345       .  A
C1128      C1129   1.387       .  A
C1128      H1131   1.082       .  S
C1129      C1130   1.386       .  A
C1129      C1416   1.484       .  S
C1130      H1132   1.081       .  S
O1133     Cu1141   2.000       .  S
O1133      C1143   1.278       .  A
O1134     Cu1141   1.996       .  S
O1134      C1144   1.275       .  A
O1135     Cu1141   2.004       .  S
O1135      C1145   1.276       .  A
O1136     Cu1141   2.007       .  S
O1136      C1146   1.278       .  A
O1137     Cu1142   2.005       .  S
O1137      C1146   1.277       .  A
O1138     Cu1142   2.009       .  S
O1138      C1145   1.278       .  A
O1139     Cu1142   1.995       .  S
O1139      C1144   1.277       .  A
O1140     Cu1142   1.994       .  S
O1140      C1143   1.275       .  A
Cu1141    Cu1142   2.379       .  S
C1144      C1174   1.458       .  S
N1147      N1148   1.322       .  A
N1147     Cu1155   2.072       .  S
N1148      C1149   1.341       .  A
N1148     Cu1154   2.055       .  S
C1149      H1152   1.082       .  S
C1150      C1151   1.383       .  A
C1151      H1153   1.082       .  S
Cu1154     N1157   2.055       .  S
Cu1155     N1165   2.072       .  S
Cu1156     N2706   2.066       .  S
Cu1156     N1164   2.067       .  S
N1157      N2706   1.321       .  A
N1157      C2709   1.341       .  A
N1158      N2705   1.321       .  A
N1158      C1159   1.345       .  A
N1158     Cu2704   2.066       .  S
C1159      C1160   1.382       .  A
C1159      H1162   1.082   1_655  S
C1160      C1161   1.379       .  A
C1160      C2630   1.462   1_655  S
C1161      N2705   1.341       .  A
C1161      H2711   1.082       .  S
H1163      C2709   1.082       .  S
N1164      N1165   1.321       .  A
N1164      C1168   1.342       .  A
N1165      C1166   1.344       .  A
C1166      C1167   1.388       .  A
C1166      H1169   1.080       .  S
C1167      C1168   1.387       .  A
C1167      C1395   1.485       .  S
C1168      H2718   1.081       .  S
H1170      C2716   1.081       .  S
N1171      C1175   1.344   1_545  A
N1172     Cu1178   2.045       .  S
C1173      C1174   1.377   1_545  A
C1173      H1176   1.082       .  S
C1174      C1175   1.382       .  A
C1175      H1177   1.082       .  S
Cu1178     N2729   2.046       .  S
Cu1179     N1189   2.065       .  S
Cu1180     N1182   2.067   1_655  S
Cu1180     N2736   2.069       .  S
N1181      N1182   1.320   1_655  A
N1181      C1185   1.340   1_655  A
N1181     Cu2726   2.046       .  S
N1182      C1183   1.344       .  A
C1183      C1184   1.383       .  A
C1183      H1186   1.082       .  S
C1184      C1185   1.378       .  A
C1184      C1329   1.459       .  S
C1185      H1187   1.082       .  S
N1188      N1189   1.321       .  A
N1188      C1192   1.343       .  A
N1188     Cu2728   2.069       .  S
N1189      C1190   1.342       .  A
C1190      C1191   1.387       .  A
C1190      H1193   1.080       .  S
C1191      C1192   1.388       .  A
C1191      C1392   1.484       .  S
C1192      H2742   1.080       .  S
H1194      C2740   1.080       .  S
O1195     Cu1203   1.998       .  S
O1195      C1205   1.276       .  A
O1196     Cu1203   2.002       .  S
O1196      C1206   1.277       .  A
O1197     Cu1203   1.997       .  S
O1197      C1207   1.277       .  A
O1198     Cu1203   1.989       .  S
O1198      C1208   1.275       .  A
O1199     Cu1204   1.996       .  S
O1199      C1208   1.277       .  A
O1200     Cu1204   1.996       .  S
O1200      C1207   1.275       .  A
O1201     Cu1204   2.000       .  S
O1201      C1206   1.276       .  A
O1202     Cu1204   2.007       .  S
O1202      C1205   1.278       .  A
Cu1203    Cu1204   2.380       .  S
C1205      C2450   1.463       .  S
C1206      C1236   1.462       .  S
N1209      N1210   1.322       .  A
N1209     Cu1217   2.071       .  S
N1210      C1211   1.342       .  A
N1210     Cu1216   2.062       .  S
C1211      H1214   1.082       .  S
C1212      C1213   1.383       .  A
C1213      H1215   1.082       .  S
Cu1216     N1219   2.063       .  S
Cu1217     N1227   2.071       .  S
Cu1218     N1220   2.065       .  S
Cu1218     N1226   2.066       .  S
N1219      N1220   1.321       .  A
N1219      C1223   1.343       .  A
N1220      C1221   1.344       .  A
C1221      C1222   1.382       .  A
C1221      H1224   1.082       .  S
C1222      C1223   1.381       .  A
C1223      H1225   1.082       .  S
N1226      N1227   1.321       .  A
N1226      C1230   1.343       .  A
N1227      C1228   1.343       .  A
C1228      C1229   1.387       .  A
C1228      H1231   1.081       .  S
C1229      C1230   1.386       .  A
C1229      C1368   1.481       .  S
C1230      H1232   1.081       .  S
N1233      N1234   1.322       .  A
N1233      C1237   1.344       .  A
N1233     Cu1241   2.069       .  S
N1234      C1235   1.342       .  A
N1234     Cu1240   2.059       .  S
C1235      C1236   1.379       .  A
C1235      H1238   1.082       .  S
C1236      C1237   1.382       .  A
C1237      H1239   1.082       .  S
Cu1240     N1243   2.058       .  S
Cu1241     N1251   2.070       .  S
Cu1242     N1244   2.065       .  S
Cu1242     N1250   2.065       .  S
N1243      N1244   1.321       .  A
N1243      C1247   1.342       .  A
N1244      C1245   1.344   1_565  A
C1245      C1246   1.382       .  A
C1245      H1248   1.082       .  S
C1246      C1247   1.380   1_545  A
C1247      H1249   1.082       .  S
N1250      N1251   1.321       .  A
N1250      C1254   1.341       .  A
N1251      C1252   1.344       .  A
C1252      C1253   1.388       .  A
C1252      H1255   1.081       .  S
C1253      C1254   1.386       .  A
C1253      C1371   1.482       .  S
C1254      H1256   1.081       .  S
O1257     Cu1265   2.003       .  S
O1257      C1267   1.278       .  A
O1258      C1268   1.276       .  A
O1259      C1269   1.276       .  A
O1260     Cu1265   2.004       .  S
O1260      C1270   1.277       .  A
O1261     Cu1266   2.004       .  S
O1262     Cu1266   2.006       .  S
O1262      C1269   1.278       .  A
O1263     Cu1266   2.003       .  S
O1263      C1268   1.278       .  A
O1264     Cu1266   2.001       .  S
C1269      C1274   1.464       .  S
N1271      N1272   1.322       .  A
N1271      C1275   1.346       .  A
N1271     Cu1279   2.073       .  S
N1272      C1273   1.342       .  A
N1272     Cu1278   2.058       .  S
C1273      C1274   1.379       .  A
C1273      H1276   1.082       .  S
C1274      C1275   1.384       .  A
C1275      H1277   1.082       .  S
Cu1278     N1281   2.058       .  S
Cu1279     N1289   2.073       .  S
Cu1280     N1282   2.065       .  S
Cu1280     N1288   2.065       .  S
N1281      N1282   1.321       .  A
N1281      C1285   1.342       .  A
N1282      C1283   1.344       .  A
C1283      C1284   1.383       .  A
C1283      H1286   1.082       .  S
C1284      C1285   1.380       .  A
C1285      H1287   1.082       .  S
N1288      N1289   1.321       .  A
N1288      C1292   1.341       .  A
N1289      C1290   1.344       .  A
C1290      C1291   1.388       .  A
C1290      H1293   1.081       .  S
C1291      C1292   1.386       .  A
C1291      C1344   1.483       .  S
C1292      H1294   1.081       .  S
N1295      N1296   1.322       .  A
N1295      C1299   1.345       .  A
N1295     Cu1303   2.070       .  S
N1296      C1297   1.343       .  A
N1296     Cu1302   2.061       .  S
C1297      C1298   1.380       .  A
C1297      H1300   1.082       .  S
C1298      C1299   1.382       .  A
C1298      C1332   1.463       .  S
C1299      H1301   1.082       .  S
Cu1302     N1305   2.061       .  S
Cu1303     N1313   2.070       .  S
Cu1304     N1306   2.066       .  S
Cu1304     N1312   2.066       .  S
N1305      N1306   1.321       .  A
N1305      C1309   1.342       .  A
N1306      C1307   1.344       .  A
C1307      C1308   1.382       .  A
C1307      H1310   1.082       .  S
C1308      C1309   1.380       .  A
C1309      H1311   1.082       .  S
N1312      N1313   1.321       .  A
N1312      C1316   1.342       .  A
N1313      C1314   1.344       .  A
C1314      C1315   1.388       .  A
C1314      H1317   1.081       .  S
C1315      C1316   1.386       .  A
C1315      C1347   1.483       .  S
C1316      H1318   1.081       .  S
O1319     Cu1327   2.000       .  S
O1319      C1329   1.277       .  A
O1320     Cu1327   2.000       .  S
O1320      C1330   1.276       .  A
O1321     Cu1327   1.997       .  S
O1321      C1331   1.275       .  A
O1322     Cu1327   2.003       .  S
O1322      C1332   1.277       .  A
O1323     Cu1328   2.002       .  S
O1323      C1332   1.276       .  A
O1324     Cu1328   2.004       .  S
O1324      C1331   1.278       .  A
O1325     Cu1328   1.996       .  S
O1325      C1330   1.277       .  A
O1326     Cu1328   1.995       .  S
O1326      C1329   1.275       .  A
Cu1327    Cu1328   2.379       .  S
C1333      C1334   1.398       .  A
C1333      C1338   1.403       .  A
C1333      H1349   1.084       .  S
C1334      C1335   1.403       .  A
C1334      H1350   1.084       .  S
C1335      C1345   1.402       .  A
C1335      C1336   1.411       .  A
C1336      C1342   1.410       .  A
C1336      C1337   1.410       .  A
C1337      C1339   1.411       .  A
C1337      C1338   1.410       .  A
C1338      C1346   1.400       .  A
C1339      C1348   1.401       .  A
C1339      C1340   1.403       .  A
C1340      C1341   1.398       .  A
C1340      H1351   1.084       .  S
C1341      C1342   1.403       .  A
C1341      H1352   1.084       .  S
C1342      C1343   1.400       .  A
C1343      C1344   1.408       .  A
C1343      H1353   1.082       .  S
C1344      C1345   1.407       .  A
C1345      H1354   1.082       .  S
C1346      C1347   1.408       .  A
C1346      H1355   1.082       .  S
C1347      C1348   1.407       .  A
C1348      H1356   1.082       .  S
C1357      C1358   1.398       .  A
C1357      C1362   1.403       .  A
C1357      H1373   1.084       .  S
C1358      C1359   1.403       .  A
C1358      H1374   1.083       .  S
C1359      C1369   1.401       .  A
C1359      C1360   1.410       .  A
C1360      C1366   1.411       .  A
C1360      C1361   1.410       .  A
C1361      C1363   1.410       .  A
C1361      C1362   1.411       .  A
C1362      C1370   1.402       .  A
C1363      C1372   1.400       .  A
C1363      C1364   1.403       .  A
C1364      C1365   1.397       .  A
C1365      C1366   1.403       .  A
C1366      C1367   1.401       .  A
C1367      C1368   1.407       .  A
C1367      H1377   1.082       .  S
C1368      C1369   1.407       .  A
C1369      H1378   1.082       .  S
C1370      C1371   1.407       .  A
C1370      H1379   1.082       .  S
C1371      C1372   1.408       .  A
C1372      H1380   1.082       .  S
C1381      C1382   1.398       .  A
C1381      C2934   1.403       .  A
C1381      H1397   1.084   1_655  S
C1382      C2931   1.403       .  A
C1382      H1398   1.083   1_655  S
C1383      C2930   1.403       .  A
C1383      C1393   1.402       .  A
C1383      C1384   1.410       .  A
C1384      C1390   1.410       .  A
C1384      C1385   1.410       .  A
C1385      C1387   1.410       .  A
C1385      C1386   1.410       .  A
C1386      C2929   1.403       .  A
C1386      C1394   1.401       .  A
C1387      C1396   1.401       .  A
C1387      C1388   1.403       .  A
C1388      C1389   1.397       .  A
C1389      C1390   1.403       .  A
C1390      C1391   1.400       .  A
C1391      C1392   1.408       .  A
C1391      H1401   1.080       .  S
C1392      C1393   1.408       .  A
C1393      H1402   1.081       .  S
C1394      C1395   1.408       .  A
C1394      H1403   1.081       .  S
C1395      C1396   1.408       .  A
C1396      H1404   1.081       .  S
C1405      C1406   1.399       .  A
C1405      C1410   1.403       .  A
C1405      H2969   1.084       .  S
C1406      C1407   1.404       .  A
C1406      H2970   1.083       .  S
C1407      C1417   1.403       .  A
C1407      C1408   1.410       .  A
C1408      C1414   1.411       .  A
C1408      C1409   1.412       .  A
C1409      C1411   1.410       .  A
C1409      C1410   1.411       .  A
C1410      C1418   1.403       .  A
C1411      C1420   1.402       .  A
C1411      C1412   1.404       .  A
C1412      C1413   1.399       .  A
C1412      H1423   1.083       .  S
C1413      C1414   1.403       .  A
C1413      H1424   1.084       .  S
C1414      C1415   1.403       .  A
C1415      C1416   1.407       .  A
C1415      H1425   1.083       .  S
C1416      C1417   1.408       .  A
C1417      H1426   1.083       .  S
C1418      C1419   1.407       .  A
C1418      H2975   1.083       .  S
C1419      C1420   1.408       .  A
C1420      H1428   1.082       .  S
H1421      C2953   1.084   1_455  S
H1422      C2954   1.083   1_455  S
H1427      C2966   1.083       .  S
C1429      C1430   1.399       .  A
C1429      C1434   1.403       .  A
C1429      H1445   1.084       .  S
C1430      C1431   1.404       .  A
C1430      H1446   1.084       .  S
C1431      C1441   1.403       .  A
C1431      C1432   1.410       .  A
C1432      C1438   1.410       .  A
C1432      C1433   1.412       .  A
C1433      C1435   1.410       .  A
C1433      C1434   1.411       .  A
C1434      C1442   1.403       .  A
C1435      C1444   1.402       .  A
C1435      C1436   1.404       .  A
C1436      C1437   1.399       .  A
C1436      H1447   1.084       .  S
C1437      C1438   1.404       .  A
C1437      H1448   1.083       .  S
C1438      C1439   1.403       .  A
C1439      C1440   1.409       .  A
C1439      H1449   1.082       .  S
C1440      C1441   1.409       .  A
C1441      H1450   1.082       .  S
C1442      C1443   1.408       .  A
C1442      H1451   1.082       .  S
C1443      C1444   1.409       .  A
C1444      H1452   1.082       .  S
C1453      C1454   1.397       .  A
C1453      C1458   1.403       .  A
C1453      H1469   1.085       .  S
C1454      C1455   1.403       .  A
C1454      H1470   1.084       .  S
C1455      C1465   1.400       .  A
C1455      C1456   1.410       .  A
C1456      C1462   1.411       .  A
C1456      C1457   1.410       .  A
C1457      C1459   1.410       .  A
C1457      C1458   1.411       .  A
C1458      C1466   1.401       .  A
C1459      C1468   1.401       .  A
C1459      C1460   1.403       .  A
C1460      C1461   1.398       .  A
C1460      H1471   1.083       .  S
C1461      C1462   1.403       .  A
C1461      H1472   1.085       .  S
C1462      C1463   1.402       .  A
C1463      C1464   1.408       .  A
C1463      H1473   1.083       .  S
C1464      C1465   1.408       .  A
C1465      H1474   1.082       .  S
C1466      C1467   1.407       .  A
C1466      H1475   1.083       .  S
C1467      C1468   1.408       .  A
C1468      H1476   1.081       .  S
C1477      C1478   1.399       .  A
C1477      C1482   1.403       .  A
C1477      H1493   1.083       .  S
C1478      C1479   1.404       .  A
C1478      H1494   1.083       .  S
C1479      C1489   1.402       .  A
C1479      C1480   1.410       .  A
C1480      C3034   1.411       .  A
C1480      C1481   1.411       .  A
C1481      C3031   1.410       .  A
C1481      C1482   1.411       .  A
C1482      C1490   1.403   1_556  A
C1483      C3029   1.410       .  A
C1483      C1492   1.401   1_556  A
C1483      C1484   1.403       .  A
C1484      C1485   1.398       .  A
C1484      H1495   1.083       .  S
C1485      C1486   1.403       .  A
C1485      H1496   1.083       .  S
C1486      C3028   1.411       .  A
C1486      C1487   1.402       .  A
C1487      C3036   1.408       .  A
C1487      H1497   1.082       .  S
C1488      C3035   1.408       .  A
C1488      C1489   1.410       .  A
C1489      H1498   1.081       .  S
C1490      C1491   1.408   1_455  A
C1490      H1499   1.082       .  S
C1491      C3040   1.409   1_655  A
C1492      C3039   1.409       .  A
C1492      H1500   1.082       .  S
C1501      C1502   1.398       .  A
C1501      H1517   1.083       .  S
C1502      C1503   1.403       .  A
C1502      H1518   1.084       .  S
C1503      C1513   1.402       .  A
C1504      C1510   1.410       .  A
C1504      C1505   1.411       .  A
C1505      C1507   1.411       .  A
C1505      C1506   1.410       .  A
C1506      C1514   1.402   1_566  A
C1507      C1516   1.402   1_556  A
C1507      C1508   1.403       .  A
C1508      C1509   1.398       .  A
C1508      H1519   1.083       .  S
C1509      C1510   1.404       .  A
C1509      H1520   1.084       .  S
C1510      C1511   1.402       .  A
C1511      H1521   1.083       .  S
C1512      C1513   1.407       .  A
C1513      H1522   1.083       .  S
C1514      C1515   1.408       .  A
C1514      H1523   1.082       .  S
C1515      C1516   1.407   1_545  A
C1516      H1524   1.083       .  S
C1525      C1526   1.398       .  A
C1525      C1530   1.403       .  A
C1525      H1541   1.085       .  S
C1526      C1527   1.403       .  A
C1526      H1542   1.084       .  S
C1527      C1537   1.402       .  A
C1527      C1528   1.411       .  A
C1528      C1534   1.410       .  A
C1528      C1529   1.410       .  A
C1529      C1531   1.411       .  A
C1529      C1530   1.410       .  A
C1530      C1538   1.401   1_556  A
C1531      C1540   1.401   1_556  A
C1531      C1532   1.403       .  A
C1532      C1533   1.397       .  A
C1532      H1543   1.084       .  S
C1533      C1534   1.403       .  A
C1533      H1544   1.084       .  S
C1534      C1535   1.400       .  A
C1535      C1536   1.408       .  A
C1535      H1545   1.083       .  S
C1536      C1537   1.407       .  A
C1537      H1546   1.083       .  S
C1538      C1539   1.408       .  A
C1538      H1547   1.083       .  S
C1539      C1540   1.407       .  A
C1540      H1548   1.083       .  S
N1549      N1550   1.321       .  A
N1549      C1553   1.345       .  A
N1549     Cu1557   2.071       .  S
N1550      C1551   1.339       .  A
N1550     Cu1556   2.044       .  S
C1551      C1552   1.376       .  A
C1551      H1554   1.082       .  S
C1552      C1553   1.383       .  A
C1552      C1842   1.458       .  S
C1553      H1555   1.082       .  S
Cu1556     N1559   2.044       .  S
Cu1557     N1567   2.072       .  S
Cu1558     N1560   2.060       .  S
Cu1558     N1566   2.062       .  S
N1559      N1560   1.321       .  A
N1559      C1563   1.340       .  A
N1560      C1561   1.342       .  A
C1561      C1562   1.381       .  A
C1561      H1564   1.082       .  S
C1562      C1563   1.377       .  A
C1562      C1982   1.455       .  S
C1563      H1565   1.082       .  S
N1566      N1567   1.321       .  A
N1566      C1570   1.342       .  A
N1567      C1568   1.344       .  A
C1568      C1569   1.388       .  A
C1568      H1571   1.081       .  S
C1569      C1570   1.385       .  A
C1569      C2313   1.481       .  S
C1570      H1572   1.082       .  S
N1573      N1574   1.322       .  A
N1573      C1577   1.345       .  A
N1573     Cu1581   2.073       .  S
N1574      C1575   1.339       .  A
N1574     Cu1580   2.046       .  S
C1575      C1576   1.376       .  A
C1575      H1578   1.082       .  S
C1576      C1577   1.384       .  A
C1576      C1917   1.459       .  S
C1577      H1579   1.082       .  S
Cu1580     N1583   2.046       .  S
Cu1581     N1591   2.073       .  S
Cu1582     N1584   2.068       .  S
Cu1582     N1590   2.069       .  S
N1583      N1584   1.320       .  A
N1583      C1587   1.340       .  A
N1584      C1585   1.345       .  A
C1585      C1586   1.383       .  A
C1585      H1588   1.082       .  S
C1586      C1587   1.378       .  A
C1586      C2104   1.460       .  S
C1587      H1589   1.082       .  S
N1590      N1591   1.322       .  A
N1590      C1594   1.342       .  A
N1591      C1592   1.344       .  A
C1592      C1593   1.387       .  A
C1592      H1595   1.082       .  S
C1593      C1594   1.386       .  A
C1593      C2310   1.482       .  S
C1594      H1596   1.081       .  S
O1597     Cu1605   2.007       .  S
O1597      C1607   1.278       .  A
O1598     Cu1605   2.008       .  S
O1598      C1608   1.277       .  A
O1599     Cu1605   1.997       .  S
O1599      C1609   1.276       .  A
O1600     Cu1605   2.000       .  S
O1600      C1610   1.276       .  A
O1601     Cu1606   2.004       .  S
O1601      C1610   1.277       .  A
O1602     Cu1606   2.007       .  S
O1602      C1609   1.278       .  A
O1603     Cu1606   1.998       .  S
O1603      C1608   1.276       .  A
O1604     Cu1606   2.000       .  S
O1604      C1607   1.276       .  A
Cu1605    Cu1606   2.378       .  S
C1607      C1796   1.464       .  S
C1608      C1872   1.464       .  S
C1609      C1996   1.463       .  S
C1610      C2058   1.463       .  S
O1611     Cu1619   2.003       .  S
O1611      C1621   1.277       .  A
O1612     Cu1619   2.006       .  S
O1612      C1622   1.277       .  A
O1613     Cu1619   2.001       .  S
O1613      C1623   1.277       .  A
O1614     Cu1619   1.999       .  S
O1614      C1624   1.276       .  A
O1615     Cu1620   1.999       .  S
O1615      C1624   1.277       .  A
O1616     Cu1620   2.002       .  S
O1616      C1623   1.277       .  A
O1617     Cu1620   1.999       .  S
O1617      C1622   1.277       .  A
O1618     Cu1620   2.001       .  S
O1618      C1621   1.276       .  A
Cu1619    Cu1620   2.378       .  S
C1621      C1896   1.463       .  S
C1622      C1662   1.464       .  S
C1623      C2856   1.463       .  S
C1624      C1710   1.461       .  S
N1625      N1626   1.322       .  A
N1625      C1629   1.346       .  A
N1625     Cu1633   2.073       .  S
N1626      C1627   1.342       .  A
N1626     Cu1632   2.059       .  S
C1627      C1628   1.379       .  A
C1627      H1630   1.082       .  S
C1628      C1629   1.383       .  A
C1628      C2617   1.464       .  S
C1629      H1631   1.082       .  S
Cu1632     N1635   2.059       .  S
Cu1633     N1643   2.074       .  S
Cu1634     N1636   2.068       .  S
Cu1634     N1642   2.070       .  S
N1635      N1636   1.321       .  A
N1635      C1639   1.343       .  A
N1636      C1637   1.345       .  A
C1637      C1638   1.383       .  A
C1637      H1640   1.082       .  S
C1638      C1639   1.380       .  A
C1638      C2507   1.464       .  S
C1639      H2415   1.082       .  S
H1641      C2413   1.082       .  S
N1642      N1643   1.322       .  A
N1642      C1646   1.343       .  A
N1643      C1644   1.344       .  A
C1644      C1645   1.387       .  A
C1644      H1647   1.081       .  S
C1645      C1646   1.386       .  A
C1645      C2289   1.484       .  S
C1646      H1648   1.081       .  S
N1649      N1650   1.322       .  A
N1649      C1653   1.346       .  A
N1649     Cu2431   2.075       .  S
N1650      C1651   1.343       .  A
N1650     Cu1656   2.064       .  S
C1651      C1652   1.380       .  A
C1651      H1654   1.082       .  S
C1652      C1653   1.383       .  A
C1652      C1920   1.466       .  S
C1653      H1655   1.082       .  S
Cu1656     N1659   2.064       .  S
Cu1657     N2423   2.075       .  S
Cu1657     N1667   2.076       .  S
Cu1658     N2434   2.066       .  S
Cu1658     N1666   2.067       .  S
N1659      N1660   1.321       .  A
N1659      C1663   1.343       .  A
N1660      C1661   1.344       .  A
N1660     Cu2432   2.066       .  S
C1661      C1662   1.382       .  A
C1661      H1664   1.082       .  S
C1662      C1663   1.381       .  A
C1663      H1665   1.082       .  S
N1666      N1667   1.321       .  A
N1666      C1670   1.343       .  A
N1667      C1668   1.345       .  A
C1668      C1669   1.388       .  A
C1668      H1671   1.081       .  S
C1669      C1670   1.386       .  A
C1669      C2286   1.484       .  S
C1670      H1672   1.081       .  S
N1673      N1674   1.323       .  A
N1673      C1677   1.345       .  A
N1673     Cu1681   2.076       .  S
N1674      C1675   1.343       .  A
N1674     Cu1680   2.058       .  S
C1675      C1676   1.379       .  A
C1676      C1677   1.383       .  A
C1677      H1679   1.082       .  S
Cu1680     N1683   2.057       .  S
Cu1681     N1691   2.076       .  S
Cu1682     N1684   2.067       .  S
Cu1682     N1690   2.067       .  S
N1683      N1684   1.321       .  A
N1683      C1687   1.342       .  A
N1684      C1685   1.344       .  A
C1685      C1686   1.383       .  A
C1685      H1688   1.082       .  S
C1686      C1687   1.380       .  A
N1690      N1691   1.321       .  A
N1690      C1694   1.342       .  A
N1691      C1692   1.346       .  A
C1692      C1693   1.390       .  A
C1692      H1695   1.081       .  S
C1693      C1694   1.387       .  A
C1693      C2265   1.487       .  S
C1694      H1696   1.081       .  S
N1697      N1698   1.322       .  A
N1697      C1701   1.345       .  A
N1697     Cu1705   2.076       .  S
N1698      C1699   1.341       .  A
N1698     Cu1704   2.053       .  S
C1699      C1700   1.378       .  A
C1699      H1702   1.082       .  S
C1700      C1701   1.383       .  A
C1700      C2105   1.462       .  S
C1701      H1703   1.082       .  S
Cu1704     N1707   2.052       .  S
Cu1705     N1715   2.076       .  S
Cu1706     N1708   2.066       .  S
Cu1706     N1714   2.066       .  S
N1707      N1708   1.321       .  A
N1707      C1711   1.341       .  A
N1708      C1709   1.344       .  A
C1709      C1710   1.382       .  A
C1709      H1712   1.082       .  S
C1710      C1711   1.379       .  A
C1711      H1713   1.082       .  S
N1714      N1715   1.321       .  A
N1714      C1718   1.342       .  A
N1715      C1716   1.345       .  A
C1716      C1717   1.390       .  A
C1716      H1719   1.081       .  S
C1717      C1718   1.387       .  A
C1717      C2262   1.487       .  S
C1718      H1720   1.081       .  S
O1721     Cu1729   2.002       .  S
O1721      C1731   1.276       .  A
O1722     Cu1729   1.999       .  S
O1722      C1732   1.277       .  A
O1723     Cu1729   2.003       .  S
O1723      C1733   1.277       .  A
O1724     Cu1729   2.002       .  S
O1724      C1734   1.277       .  A
O1725     Cu1730   2.004       .  S
O1725      C1734   1.277       .  A
O1726     Cu1730   2.003       .  S
O1726      C1733   1.277       .  A
O1727     Cu1730   2.004       .  S
O1727      C1732   1.277       .  A
O1728     Cu1730   2.000       .  S
O1728      C1731   1.277       .  A
Cu1729    Cu1730   2.378       .  S
C1732      C2794   1.463       .  S
C1733      C2412   1.464       .  S
N1735      N1736   1.321       .  A
N1735      C2513   1.346       .  A
N1735     Cu1743   2.072       .  S
N1736      C1737   1.341       .  A
N1736     Cu1742   2.051       .  S
C1737      C2512   1.378       .  A
C1737      H1740   1.082       .  S
C1738      C2511   1.378       .  A
C1738      C1739   1.384       .  A
C1738      C2815   1.462       .  S
C1739      N2509   1.346       .  A
C1739      H1741   1.082       .  S
Cu1742     N1745   2.051       .  S
Cu1743     N1753   2.073       .  S
Cu1744     N1746   2.069       .  S
Cu1744     N1752   2.070       .  S
N1745      N1746   1.321       .  A
N1745      C1749   1.341       .  A
N1746      C1747   1.345       .  A
C1747      C1748   1.383       .  A
C1748      C1749   1.378       .  A
C1748      C1855   1.462       .  S
C1749      H1751   1.082       .  S
N1752      N1753   1.322       .  A
N1752      C1756   1.342       .  A
N1753      C1754   1.344       .  A
C1754      C1755   1.388       .  A
C1754      H1757   1.081       .  S
C1755      C1756   1.387       .  A
C1755      C2238   1.485       .  S
C1756      H1758   1.081       .  S
N1759      N1760   1.321       .  A
N1759     Cu1767   2.067       .  S
N1760      C1761   1.340       .  A
N1760     Cu1766   2.047       .  S
C1761      H1764   1.082       .  S
C1762      C1763   1.382       .  A
C1762      C1981   1.459   1_455  S
C1763      H1765   1.082       .  S
Cu1766     N1769   2.046       .  S
Cu1767     N1777   2.068       .  S
Cu1768     N1770   2.066       .  S
Cu1768     N1776   2.067       .  S
N1769      N1770   1.321       .  A
N1769      C1773   1.339       .  A
N1770      C2545   1.345       .  A
C1771      N2544   1.345   1_545  A
C1771      C1772   1.382       .  A
C1771      H1774   1.082       .  S
C1772      C2547   1.377   1_545  A
C1772      C1841   1.459       .  S
C1773      C2546   1.377       .  A
C1773      H1775   1.082       .  S
N1776      N1777   1.321       .  A
N1776      C1780   1.342       .  A
N1777      C1778   1.343       .  A
C1778      C1779   1.387       .  A
C1778      H1781   1.081       .  S
C1779      C1780   1.387       .  A
C1779      C2241   1.484       .  S
C1780      H1782   1.081       .  S
N1783      N1784   1.321       .  A
N1783      C1787   1.345       .  A
N1783     Cu1791   2.073       .  S
N1784      C1785   1.342       .  A
N1784     Cu1790   2.056       .  S
C1785      C1786   1.379       .  A
C1785      H1788   1.082       .  S
C1786      C1787   1.384       .  A
C1786      C1858   1.464       .  S
C1787      H1789   1.082       .  S
Cu1790     N1793   2.056       .  S
Cu1791     N1801   2.074       .  S
Cu1792     N1794   2.075       .  S
Cu1792     N1800   2.075       .  S
N1793      N1794   1.321       .  A
N1793      C1797   1.342       .  A
N1794      C1795   1.345       .  A
C1795      C1796   1.384       .  A
C1795      H1798   1.082       .  S
C1796      C1797   1.379       .  A
C1797      H1799   1.082       .  S
N1800      N1801   1.321       .  A
N1800      C1804   1.344       .  A
N1801      C1802   1.344       .  A
C1802      C1803   1.388       .  A
C1802      H1805   1.081       .  S
C1803      C1804   1.388       .  A
C1803      C2214   1.487       .  S
C1804      H1806   1.081       .  S
N1807      N1808   1.322       .  A
N1807      C1811   1.345       .  A
N1807     Cu1815   2.077       .  S
N1808      C1809   1.342       .  A
N1808     Cu1814   2.059       .  S
C1809      C1810   1.379       .  A
C1809      H1812   1.082       .  S
C1810      C1811   1.384       .  A
C1810      C1844   1.464       .  S
C1811      H1813   1.082       .  S
Cu1814     N1817   2.058       .  S
Cu1815     N1825   2.077       .  S
Cu1816     N1818   2.068       .  S
Cu1816     N1824   2.069       .  S
N1817      N1818   1.321       .  A
N1817      C1821   1.342       .  A
N1818      C1819   1.345       .  A
C1819      C1820   1.383       .  A
C1819      H1822   1.082       .  S
C1820      C1821   1.380       .  A
C1821      H1823   1.082       .  S
N1824      N1825   1.321       .  A
N1824      C1828   1.343       .  A
N1825      C1826   1.345       .  A
C1826      C1827   1.389       .  A
C1826      H1829   1.081       .  S
C1827      C1828   1.387       .  A
C1827      C2217   1.487       .  S
C1828      H1830   1.081       .  S
O1831     Cu1839   1.994       .  S
O1831      C1841   1.277       .  A
O1832     Cu1839   1.994       .  S
O1832      C1842   1.275       .  A
O1833     Cu1839   2.003       .  S
O1833      C1843   1.276       .  A
O1834     Cu1839   2.008       .  S
O1834      C1844   1.278       .  A
O1835     Cu1840   2.001       .  S
O1835      C1844   1.276       .  A
O1836     Cu1840   2.002       .  S
O1836      C1843   1.277       .  A
O1837     Cu1840   1.998       .  S
O1837      C1842   1.277       .  A
O1838     Cu1840   1.998       .  S
O1838      C1841   1.276       .  A
Cu1839    Cu1840   2.379       .  S
C1843      C2402   1.464       .  S
O1845      C1855   1.276       .  A
O1846     Cu1853   1.999   1_655  S
O1846      C1856   1.277   1_655  A
O1847     Cu1853   2.004   1_655  S
O1848      C1858   1.276       .  A
O1849     Cu1854   2.005       .  S
O1849      C1858   1.278       .  A
O1850     Cu1854   2.002       .  S
O1850      C1857   1.276       .  A
O1851     Cu1854   2.003       .  S
O1852     Cu1854   2.003       .  S
O1852      C1855   1.278       .  A
C1857      C1862   1.464       .  S
N1859      C1863   1.346       .  A
N1860     Cu1866   2.060       .  S
C1861      C1862   1.379       .  A
C1862      C1863   1.383       .  A
C1863      H1865   1.082       .  S
Cu1866     N1869   2.060       .  S
Cu1867     N1877   2.077       .  S
Cu1868     N1870   2.068       .  S
Cu1868     N1876   2.069       .  S
N1869      N1870   1.321       .  A
N1869      C1873   1.342       .  A
N1870      C1871   1.345       .  A
C1871      C1872   1.382       .  A
C1871      H1874   1.082       .  S
C1872      C1873   1.381       .  A
C1873      H1875   1.082       .  S
N1876      N1877   1.321       .  A
N1876      C1880   1.343       .  A
N1877      C1878   1.345       .  A
C1878      C1879   1.388       .  A
C1879      C1880   1.386       .  A
C1879      C2193   1.484       .  S
C1880      H1882   1.081       .  S
N1883      N1884   1.322       .  A
N1883      C1887   1.346       .  A
N1883     Cu1891   2.077       .  S
N1884      C1885   1.343       .  A
N1884     Cu1890   2.059       .  S
C1885      C1886   1.380       .  A
C1885      H1888   1.082       .  S
C1886      C1887   1.384       .  A
C1886      C1919   1.466       .  S
C1887      H1889   1.082       .  S
Cu1890     N1893   2.058   1_655  S
Cu1891     N1901   2.078       .  S
Cu1892     N1894   2.071   1_655  S
Cu1892     N1900   2.072       .  S
N1893      N1894   1.321       .  A
N1893      C1897   1.342       .  A
C1895      C1896   1.383       .  A
C1895      H1898   1.082       .  S
C1897      H1899   1.082       .  S
N1900      N1901   1.322       .  A
N1900      C1904   1.344       .  A
N1901      C1902   1.345       .  A
C1902      C1903   1.387       .  A
C1902      H1905   1.082       .  S
C1903      C1904   1.386       .  A
C1903      C2190   1.484       .  S
C1904      H1906   1.081       .  S
O1907     Cu1915   2.000       .  S
O1907      C1917   1.278       .  A
O1908     Cu1915   1.996       .  S
O1908      C1918   1.275       .  A
O1909     Cu1915   2.004       .  S
O1909      C1919   1.276       .  A
O1910     Cu1915   2.007       .  S
O1910      C1920   1.278       .  A
O1911     Cu1916   2.005       .  S
O1911      C1920   1.277       .  A
O1912     Cu1916   2.009       .  S
O1912      C1919   1.278       .  A
O1913     Cu1916   1.995       .  S
O1913      C1918   1.277       .  A
O1914     Cu1916   1.994       .  S
O1914      C1917   1.275       .  A
Cu1915    Cu1916   2.379       .  S
C1918      C1948   1.458       .  S
N1921      N1922   1.322       .  A
N1921      C2699   1.345       .  A
N1921     Cu1929   2.072       .  S
N1922      C1923   1.341       .  A
N1922     Cu1928   2.055       .  S
C1923      C2698   1.378       .  A
C1923      H1926   1.082       .  S
C1924      C2697   1.378       .  A
C1924      C1925   1.383       .  A
C1924      C2816   1.462       .  S
C1925      N2695   1.345       .  A
C1925      H1927   1.082       .  S
Cu1928     N1931   2.055       .  S
Cu1929     N1939   2.072       .  S
Cu1930     N1938   2.067       .  S
N1932      C1933   1.345       .  A
C1933      C1934   1.382       .  A
C1933      H1936   1.082       .  S
C1934      C1935   1.379       .  A
N1938      N1939   1.321       .  A
N1938      C1942   1.342       .  A
N1939      C1940   1.344       .  A
C1940      C1941   1.389       .  A
C1940      H1943   1.080       .  S
C1941      C1942   1.387       .  A
C1941      C2169   1.485       .  S
N1945      N2720   1.321       .  A
N1945      C1949   1.344       .  A
N1945     Cu2727   2.065       .  S
N1946      N2719   1.321       .  A
N1946      C2721   1.339       .  A
N1946     Cu1952   2.045       .  S
C1947      N2720   1.339       .  A
C1947      C1948   1.377       .  A
C1947      H1950   1.082       .  S
C1948      C1949   1.382       .  A
C1949      H1951   1.082       .  S
Cu1953     N2719   2.065       .  S
Cu1953     N1963   2.065       .  S
Cu1954     N1956   2.067       .  S
N1955      N1956   1.320       .  A
N1955      C1959   1.340       .  A
N1956      C1957   1.344       .  A
C1957      C1958   1.383       .  A
C1957      H1960   1.082       .  S
C1958      C1959   1.378       .  A
C1958      C2103   1.459       .  S
C1959      H1961   1.082       .  S
N1962      N1963   1.321       .  A
N1962      C1966   1.343       .  A
N1963      C1964   1.342       .  A
C1964      C1965   1.387       .  A
C1964      H1967   1.080       .  S
C1965      C1966   1.388       .  A
C1965      C2166   1.484       .  S
O1969     Cu1977   1.998       .  S
O1969      C1979   1.276       .  A
O1970     Cu1977   2.002       .  S
O1970      C1980   1.277       .  A
O1971     Cu1977   1.997       .  S
O1971      C1981   1.277       .  A
O1972     Cu1977   1.989       .  S
O1972      C1982   1.275       .  A
O1973     Cu1978   1.996       .  S
O1973      C1982   1.277       .  A
O1974     Cu1978   1.996       .  S
O1974      C1981   1.275       .  A
O1975     Cu1978   2.000       .  S
O1975      C1980   1.276       .  A
O1976     Cu1978   2.007       .  S
O1976      C1979   1.278       .  A
Cu1977    Cu1978   2.380       .  S
C1980      C2010   1.462       .  S
N1983      N1984   1.322       .  A
N1983      C2761   1.346       .  A
N1983     Cu1991   2.071       .  S
N1984      C1985   1.342       .  A
N1984     Cu1990   2.062       .  S
C1985      C2760   1.380       .  A
C1985      H1988   1.082       .  S
C1986      C2759   1.380       .  A
C1986      C1987   1.383       .  A
C1986      C2818   1.464       .  S
C1987      N2757   1.346       .  A
C1987      H1989   1.082       .  S
Cu1990     N1993   2.063       .  S
Cu1991     N2001   2.071       .  S
Cu1992     N1994   2.065       .  S
Cu1992     N2000   2.066       .  S
N1993      N1994   1.321       .  A
N1993      C1997   1.343       .  A
N1994      C1995   1.344       .  A
C1995      C1996   1.382       .  A
C1995      H1998   1.082       .  S
C1996      C1997   1.381       .  A
C1997      H1999   1.082       .  S
N2000      N2001   1.321       .  A
N2000      C2004   1.343       .  A
N2001      C2002   1.343       .  A
C2002      C2003   1.387       .  A
C2002      H2005   1.081       .  S
C2003      C2004   1.386       .  A
C2003      C2142   1.481       .  S
C2004      H2006   1.081       .  S
N2007      N2008   1.322       .  A
N2007      C2011   1.344       .  A
N2007     Cu2015   2.069       .  S
N2008      C2009   1.342       .  A
N2008     Cu2014   2.059       .  S
C2009      C2010   1.379       .  A
C2009      H2012   1.082       .  S
C2010      C2011   1.382       .  A
C2011      H2013   1.082       .  S
Cu2014     N2017   2.058       .  S
Cu2015     N2025   2.070       .  S
Cu2016     N2018   2.065       .  S
Cu2016     N2024   2.065       .  S
N2017      N2018   1.321       .  A
N2017      C2021   1.342       .  A
N2018      C2019   1.344       .  A
C2019      C2020   1.382       .  A
C2019      H2022   1.082       .  S
C2020      C2021   1.380       .  A
C2020      C2506   1.463       .  S
C2021      H2023   1.082       .  S
N2024      N2025   1.321       .  A
N2024      C2028   1.341       .  A
N2025      C2026   1.344       .  A
C2026      C2027   1.388       .  A
C2026      H2029   1.081       .  S
C2027      C2028   1.386       .  A
C2027      C2145   1.482       .  S
C2028      H2030   1.081       .  S
O2031     Cu2039   2.003       .  S
O2031      C2041   1.278       .  A
O2032     Cu2813   1.999   1_545  S
O2032      C2042   1.276       .  A
O2033     Cu2813   2.002   1_545  S
O2033      C2043   1.276       .  A
O2034     Cu2039   2.004       .  S
O2034      C2044   1.277       .  A
O2035     Cu2040   2.004   1_565  S
O2035      C2818   1.276       .  A
O2036     Cu2040   2.006       .  S
O2036      C2043   1.278       .  A
O2037     Cu2040   2.003       .  S
O2037      C2042   1.278       .  A
O2038     Cu2040   2.001   1_565  S
O2038      C2815   1.276       .  A
Cu2039     O2806   1.999       .  S
Cu2039     O2807   2.002       .  S
Cu2039    Cu2814   2.378       .  S
Cu2040    Cu2813   2.378   1_545  S
C2041      C2512   1.462       .  S
C2041      O2812   1.276       .  A
C2042      C2698   1.462       .  S
C2043      C2048   1.464       .  S
C2044      C2760   1.464       .  S
C2044      O2809   1.276       .  A
N2045      N2046   1.322       .  A
N2045      C2049   1.346       .  A
N2045     Cu2053   2.073       .  S
N2046      C2047   1.342       .  A
N2046     Cu2052   2.058       .  S
C2047      C2048   1.379       .  A
C2047      H2050   1.082       .  S
C2048      C2049   1.384       .  A
C2049      H2051   1.082       .  S
Cu2052     N2055   2.058       .  S
Cu2053     N2063   2.073       .  S
Cu2054     N2056   2.065       .  S
Cu2054     N2062   2.065       .  S
N2055      N2056   1.321       .  A
N2055      C2059   1.342       .  A
N2056      C2057   1.344       .  A
C2057      C2058   1.383       .  A
C2057      H2060   1.082       .  S
C2058      C2059   1.380       .  A
C2059      H2061   1.082       .  S
N2062      N2063   1.321       .  A
N2062      C2066   1.341       .  A
N2063      C2064   1.344       .  A
C2064      C2065   1.388       .  A
C2064      H2067   1.081       .  S
C2065      C2066   1.386       .  A
C2065      C2118   1.483       .  S
C2066      H2068   1.081       .  S
N2069      N2070   1.322       .  A
N2069      C2073   1.345       .  A
N2069     Cu2077   2.070       .  S
N2070      C2071   1.343       .  A
N2070     Cu2076   2.061       .  S
C2071      C2072   1.380       .  A
C2071      H2074   1.082       .  S
C2072      C2073   1.382       .  A
C2072      C2106   1.463       .  S
C2073      H2075   1.082       .  S
Cu2076     N2079   2.061       .  S
Cu2077     N2087   2.070       .  S
Cu2078     N2080   2.066       .  S
Cu2078     N2086   2.066       .  S
N2079      N2080   1.321       .  A
N2079      C2083   1.342       .  A
N2080      C2081   1.344   1_545  A
C2081      C2082   1.382       .  A
C2081      H2084   1.082       .  S
C2082      C2083   1.380   1_565  A
C2082      C2397   1.463       .  S
C2083      H2085   1.082       .  S
N2086      N2087   1.321       .  A
N2086      C2090   1.342       .  A
N2087      C2088   1.344       .  A
C2088      C2089   1.388       .  A
C2088      H2091   1.081       .  S
C2089      C2090   1.386       .  A
C2089      C2121   1.483       .  S
C2090      H2092   1.081       .  S
O2093     Cu2101   2.000       .  S
O2093      C2103   1.277       .  A
O2094     Cu2101   2.000       .  S
O2094      C2104   1.276       .  A
O2095     Cu2101   1.997       .  S
O2095      C2105   1.275       .  A
O2096     Cu2101   2.003       .  S
O2096      C2106   1.277       .  A
O2097     Cu2102   2.002       .  S
O2097      C2106   1.276       .  A
O2098     Cu2102   2.004       .  S
O2098      C2105   1.278       .  A
O2099     Cu2102   1.996       .  S
O2099      C2104   1.277       .  A
O2100     Cu2102   1.995       .  S
O2100      C2103   1.275       .  A
Cu2101    Cu2102   2.379       .  S
C2107      C2108   1.398       .  A
C2107      C2112   1.403       .  A
C2107      H2123   1.084       .  S
C2108      C2109   1.403       .  A
C2108      H2124   1.084       .  S
C2109      C2119   1.402       .  A
C2109      C2110   1.411       .  A
C2110      C2116   1.410       .  A
C2110      C2111   1.410       .  A
C2111      C2113   1.411       .  A
C2111      C2112   1.410       .  A
C2112      C2120   1.400       .  A
C2113      C2122   1.401       .  A
C2113      C2114   1.403       .  A
C2114      C2115   1.398       .  A
C2114      H2125   1.084       .  S
C2115      C2116   1.403       .  A
C2115      H2126   1.083       .  S
C2116      C2117   1.400       .  A
C2117      C2118   1.408       .  A
C2117      H2127   1.082       .  S
C2118      C2119   1.407       .  A
C2119      H2128   1.082       .  S
C2120      C2121   1.408       .  A
C2120      H2129   1.082       .  S
C2121      C2122   1.407       .  A
C2122      H2130   1.082       .  S
C2131      C2132   1.398       .  A
C2131      C2136   1.403       .  A
C2131      H2147   1.084       .  S
C2132      C2133   1.403       .  A
C2132      H2148   1.083       .  S
C2133      C2143   1.401       .  A
C2133      C2134   1.410       .  A
C2134      C2140   1.411       .  A
C2134      C2135   1.410       .  A
C2135      C2137   1.410       .  A
C2135      C2136   1.411       .  A
C2136      C2144   1.402       .  A
C2137      C2146   1.400       .  A
C2137      C2138   1.403       .  A
C2138      C2139   1.397       .  A
C2138      H2923   1.083       .  S
C2139      C2140   1.403       .  A
C2139      H2924   1.084       .  S
C2140      C2141   1.401       .  A
C2141      C2142   1.407       .  A
C2141      H2151   1.082       .  S
C2142      C2143   1.407       .  A
C2143      H2152   1.082       .  S
C2144      C2145   1.407       .  A
C2144      H2153   1.082       .  S
C2145      C2146   1.408       .  A
C2146      H2154   1.082       .  S
H2149      C2912   1.083       .  S
H2150      C2913   1.084       .  S
C2155      C2156   1.398       .  A
C2155      H2171   1.084       .  S
C2156      H2172   1.084       .  S
C2157      C2167   1.402       .  A
C2157      C2158   1.410       .  A
C2158      C2164   1.410       .  A
C2158      C2159   1.410       .  A
C2159      C2161   1.410       .  A
C2159      C2160   1.410       .  A
C2160      C2168   1.401       .  A
C2161      C2170   1.401       .  A
C2161      C2162   1.403       .  A
C2162      C2163   1.397       .  A
C2162      H2947   1.083       .  S
C2163      C2164   1.403       .  A
C2163      H2948   1.084       .  S
C2164      C2165   1.400       .  A
C2165      C2166   1.408       .  A
C2165      H2175   1.080       .  S
C2166      C2167   1.408       .  A
C2167      H2176   1.081       .  S
C2168      C2169   1.408       .  A
C2168      H2177   1.081       .  S
C2169      C2170   1.408       .  A
C2170      H2178   1.081       .  S
H2173      C2936   1.083       .  S
H2174      C2937   1.084       .  S
C2179      C2180   1.399       .  A
C2179      C2184   1.403       .  A
C2180      C2181   1.404       .  A
C2181      C2191   1.403       .  A
C2181      C2182   1.410       .  A
C2182      C2188   1.411       .  A
C2182      C2183   1.412       .  A
C2183      C2185   1.410       .  A
C2183      C2184   1.411       .  A
C2184      C2192   1.403       .  A
C2185      C2194   1.402       .  A
C2185      C2186   1.404       .  A
C2186      C2187   1.399       .  A
C2186      H2197   1.083       .  S
C2187      C2188   1.403       .  A
C2187      H2198   1.084       .  S
C2188      C2189   1.403       .  A
C2189      C2190   1.407       .  A
C2189      H2199   1.083       .  S
C2190      C2191   1.408       .  A
C2191      H2200   1.083       .  S
C2192      C2193   1.407       .  A
C2193      C2194   1.408       .  A
C2194      H2202   1.082       .  S
C2203      C2204   1.399       .  A
C2203      C2208   1.403       .  A
C2203      H2219   1.084       .  S
C2204      C2205   1.404       .  A
C2204      H2220   1.084       .  S
C2205      C2215   1.403       .  A
C2205      C2206   1.410       .  A
C2206      C2212   1.410       .  A
C2206      C2207   1.412       .  A
C2207      C2209   1.410       .  A
C2207      C2208   1.411       .  A
C2208      C2216   1.403       .  A
C2209      C2218   1.402       .  A
C2209      C2210   1.404       .  A
C2210      C2211   1.399       .  A
C2210      H2221   1.084       .  S
C2211      C2212   1.404       .  A
C2211      H2222   1.084       .  S
C2212      C2213   1.403       .  A
C2213      C2214   1.409       .  A
C2213      H2223   1.082       .  S
C2214      C2215   1.409       .  A
C2215      H2224   1.082       .  S
C2216      C2217   1.408       .  A
C2216      H2225   1.082       .  S
C2217      C2218   1.409       .  A
C2218      H2226   1.082       .  S
C2227      C2228   1.398       .  A
C2227      C2232   1.403       .  A
C2227      H2243   1.085       .  S
C2228      C2229   1.403       .  A
C2228      H2244   1.084       .  S
C2229      C2239   1.400       .  A
C2229      C2230   1.410       .  A
C2230      C2236   1.411       .  A
C2230      C2231   1.410       .  A
C2231      C2233   1.410       .  A
C2231      C2232   1.411       .  A
C2232      C2240   1.401       .  A
C2233      C2242   1.401       .  A
C2233      C2234   1.403       .  A
C2234      C2235   1.398       .  A
C2234      H2245   1.083       .  S
C2235      C2236   1.403       .  A
C2235      H2246   1.085       .  S
C2236      C2237   1.402       .  A
C2237      C2238   1.408       .  A
C2237      H2247   1.083       .  S
C2238      C2239   1.408       .  A
C2239      H2248   1.082       .  S
C2240      C2241   1.407       .  A
C2240      H2249   1.083       .  S
C2241      C2242   1.408       .  A
C2242      H2250   1.082       .  S
C2251      C2252   1.399       .  A
C2251      C2256   1.403       .  A
C2251      H2267   1.084       .  S
C2252      C2253   1.404       .  A
C2252      H2268   1.083       .  S
C2253      C2263   1.402       .  A
C2253      C2254   1.410       .  A
C2254      C2255   1.411       .  A
C2255      C2256   1.411       .  A
C2256      C2264   1.403   1_556  A
C2257      C2266   1.401   1_556  A
C2257      C2258   1.403       .  A
C2258      C2259   1.398       .  A
C2258      H2269   1.083       .  S
C2259      C2260   1.403       .  A
C2259      H2270   1.083       .  S
C2260      C2261   1.402       .  A
C2261      H2271   1.082       .  S
C2262      C2263   1.410       .  A
C2263      H2272   1.081       .  S
C2264      C2265   1.408       .  A
C2264      H2273   1.082       .  S
C2266      H2274   1.082   1_455  S
C2275      C2276   1.398   1_545  A
C2275      C3054   1.403   1_545  A
C2275      H2291   1.083       .  S
C2276      C2277   1.403       .  A
C2276      H2292   1.084       .  S
C2277      C2287   1.402       .  A
C2277      C3052   1.411       .  A
C2278      C3051   1.411       .  A
C2278      C2284   1.410       .  A
C2278      C2279   1.411       .  A
C2279      C2281   1.411       .  A
C2279      C2280   1.410       .  A
C2280      C3049   1.403       .  A
C2280      C2288   1.402   1_556  A
C2281      C2290   1.402   1_556  A
C2281      C2282   1.403       .  A
C2282      C2283   1.398       .  A
C2282      H2293   1.083       .  S
C2283      C2284   1.404       .  A
C2283      H2294   1.084       .  S
C2284      C2285   1.402       .  A
C2285      C3060   1.408       .  A
C2285      H2295   1.083       .  S
C2286      C3059   1.408       .  A
C2286      C2287   1.407       .  A
C2287      H2296   1.083       .  S
C2288      C2289   1.408       .  A
C2288      H2297   1.082       .  S
C2289      C2290   1.407       .  A
C2290      H2298   1.083       .  S
C2299      C2300   1.398       .  A
C2299      C2304   1.403       .  A
C2299      H2315   1.085       .  S
C2300      C2301   1.403       .  A
C2300      H2316   1.084       .  S
C2301      C2311   1.402       .  A
C2301      C2302   1.411       .  A
C2302      C2308   1.410       .  A
C2302      C2303   1.410       .  A
C2303      C2305   1.411       .  A
C2303      C2304   1.410       .  A
C2304      C2312   1.401   1_556  A
C2305      C2314   1.401   1_556  A
C2305      C2306   1.403       .  A
C2306      C2307   1.397       .  A
C2306      H2317   1.084       .  S
C2307      C2308   1.403       .  A
C2307      H2318   1.084       .  S
C2308      C2309   1.400       .  A
C2309      C2310   1.408       .  A
C2309      H2319   1.083       .  S
C2310      C2311   1.407       .  A
C2311      H2320   1.083       .  S
C2312      C2313   1.408       .  A
C2312      H2321   1.083       .  S
C2313      C2314   1.407       .  A
C2314      H2322   1.083       .  S
N2323      N2324   1.321       .  A
N2323      C2327   1.345       .  A
N2323     Cu2331   2.071       .  S
N2324      C2325   1.339       .  A
N2324     Cu2330   2.044       .  S
C2325      C2326   1.376       .  A
C2325      H2328   1.082       .  S
C2326      C2327   1.383       .  A
C2326      C2616   1.458       .  S
C2327      H2329   1.082       .  S
Cu2330     N2333   2.044       .  S
Cu2331     N2341   2.072       .  S
Cu2332     N2334   2.060       .  S
Cu2332     N2340   2.062       .  S
N2333      N2334   1.320       .  A
N2333      C2337   1.340       .  A
N2334      C2335   1.342       .  A
C2335      C2336   1.381       .  A
C2335      H2338   1.082       .  S
C2336      C2337   1.377       .  A
C2336      C2756   1.455       .  S
C2337      H2339   1.082       .  S
N2340      N2341   1.321       .  A
N2340      C2344   1.342       .  A
N2341      C2342   1.344       .  A
C2342      C2343   1.388       .  A
C2342      H2345   1.082       .  S
C2343      C2344   1.385       .  A
C2343      C3087   1.481       .  S
C2344      H2346   1.082       .  S
N2347      N2348   1.322       .  A
N2347      C2351   1.345       .  A
N2347     Cu2355   2.073       .  S
N2348      C2349   1.339       .  A
N2348     Cu2354   2.046       .  S
C2349      C2350   1.376       .  A
C2349      H2352   1.082       .  S
C2350      C2351   1.384       .  A
C2350      C2691   1.459       .  S
C2351      H2353   1.082       .  S
Cu2354     N2357   2.046       .  S
Cu2355     N2365   2.073       .  S
Cu2356     N2358   2.068       .  S
Cu2356     N2364   2.069       .  S
N2357      N2358   1.320       .  A
N2357      C2361   1.340       .  A
N2358      C2359   1.345       .  A
C2359      C2360   1.383       .  A
C2359      H2362   1.082       .  S
C2360      C2361   1.378       .  A
C2360      C2878   1.460       .  S
C2361      H2363   1.082       .  S
N2364      N2365   1.322       .  A
N2364      C2368   1.342       .  A
N2365      C2366   1.344       .  A
C2366      C2367   1.387       .  A
C2366      H2369   1.082       .  S
C2367      C2368   1.386       .  A
C2367      C3084   1.482       .  S
C2368      H2370   1.081       .  S
O2371     Cu2379   2.007       .  S
O2371      C2381   1.278       .  A
O2372     Cu2379   2.008       .  S
O2372      C2382   1.277       .  A
O2373     Cu2379   1.997       .  S
O2373      C2383   1.276       .  A
O2374     Cu2379   2.000       .  S
O2374      C2384   1.276       .  A
O2375     Cu2380   2.004       .  S
O2375      C2384   1.277       .  A
O2376     Cu2380   2.007       .  S
O2376      C2383   1.278       .  A
O2377     Cu2380   1.998       .  S
O2377      C2382   1.276       .  A
O2378     Cu2380   2.000       .  S
O2378      C2381   1.276       .  A
Cu2379    Cu2380   2.378       .  S
C2381      C2570   1.464       .  S
C2382      C2646   1.464       .  S
C2383      C2770   1.463       .  S
C2384      C2832   1.463       .  S
O2385     Cu2393   2.003       .  S
O2385      C2395   1.277       .  A
O2386     Cu2393   2.006       .  S
O2386      C2396   1.277       .  A
O2387     Cu2393   2.001       .  S
O2387      C2397   1.277       .  A
O2388     Cu2393   1.999       .  S
O2388      C2398   1.276       .  A
O2389     Cu2394   1.999       .  S
O2389      C2398   1.277       .  A
O2390     Cu2394   2.002       .  S
O2390      C2397   1.277       .  A
O2391     Cu2394   1.999       .  S
O2391      C2396   1.277       .  A
O2392     Cu2394   2.001       .  S
O2392      C2395   1.276       .  A
Cu2393    Cu2394   2.378       .  S
C2395      C2670   1.463       .  S
C2396      C2436   1.464       .  S
C2398      C2484   1.461       .  S
N2399      N2400   1.322       .  A
N2399      C2403   1.346       .  A
N2399     Cu2407   2.073       .  S
N2400      C2401   1.342       .  A
N2400     Cu2406   2.059       .  S
C2401      C2402   1.379       .  A
C2401      H2404   1.082       .  S
C2402      C2403   1.383       .  A
C2403      H2405   1.082       .  S
Cu2406     N2409   2.059       .  S
Cu2407     N2417   2.074       .  S
Cu2408     N2410   2.068       .  S
Cu2408     N2416   2.070       .  S
N2409      N2410   1.321       .  A
N2409      C2413   1.343       .  A
N2410      C2411   1.345       .  A
C2411      C2412   1.383       .  A
C2411      H2414   1.082       .  S
C2412      C2413   1.380       .  A
N2416      N2417   1.322       .  A
N2416      C2420   1.343       .  A
N2417      C2418   1.344       .  A
C2418      C2419   1.387       .  A
C2418      H2421   1.081       .  S
C2419      C2420   1.386       .  A
C2419      C3063   1.484       .  S
C2420      H2422   1.081       .  S
N2423      N2424   1.322       .  A
N2423      C2427   1.346       .  A
N2424      C2425   1.343       .  A
N2424     Cu2430   2.064       .  S
C2425      C2426   1.380       .  A
C2425      H2428   1.082       .  S
C2426      C2427   1.383       .  A
C2426      C2694   1.466       .  S
C2427      H2429   1.082       .  S
Cu2430     N2433   2.064       .  S
Cu2431     N2441   2.076       .  S
Cu2432     N2440   2.067       .  S
N2433      N2434   1.321       .  A
N2433      C2437   1.343       .  A
N2434      C2435   1.344       .  A
C2435      C2436   1.382       .  A
C2435      H2438   1.082       .  S
C2436      C2437   1.381       .  A
C2437      H2439   1.082       .  S
N2440      N2441   1.321       .  A
N2440      C2444   1.343       .  A
N2441      C2442   1.345       .  A
C2442      C2443   1.388       .  A
C2442      H2445   1.081       .  S
C2443      C2444   1.386       .  A
C2443      C3060   1.484       .  S
C2444      H2446   1.081       .  S
N2447      N2448   1.323       .  A
N2447      C2451   1.345       .  A
N2447     Cu2455   2.076       .  S
N2448      C2449   1.343       .  A
N2448     Cu2454   2.058       .  S
C2449      C2450   1.379       .  A
C2450      C2451   1.383       .  A
C2451      H2453   1.082       .  S
Cu2454     N2457   2.057       .  S
Cu2455     N2465   2.076       .  S
Cu2456     N2458   2.067       .  S
Cu2456     N2464   2.067       .  S
N2457      N2458   1.321       .  A
N2457      C2461   1.342       .  A
N2458      C2459   1.344       .  A
C2459      C2460   1.383       .  A
C2459      H2462   1.082       .  S
C2460      C2461   1.380       .  A
N2464      N2465   1.321       .  A
N2464      C2468   1.342       .  A
N2465      C2466   1.346       .  A
C2466      C2467   1.390       .  A
C2466      H2469   1.081       .  S
C2467      C2468   1.387       .  A
C2467      C3039   1.487       .  S
C2468      H2470   1.081       .  S
N2471      N2472   1.322       .  A
N2471      C2475   1.345       .  A
N2471     Cu2479   2.076       .  S
N2472      C2473   1.341       .  A
N2472     Cu2478   2.053       .  S
C2473      C2474   1.378       .  A
C2473      H2476   1.082       .  S
C2474      C2475   1.383       .  A
C2474      C2879   1.462       .  S
C2475      H2477   1.082       .  S
Cu2478     N2481   2.052       .  S
Cu2479     N2489   2.076       .  S
Cu2480     N2482   2.066       .  S
Cu2480     N2488   2.066       .  S
N2481      N2482   1.320       .  A
N2481      C2485   1.341       .  A
N2482      C2483   1.344       .  A
C2483      C2484   1.382       .  A
C2483      H2486   1.082       .  S
C2484      C2485   1.379       .  A
C2485      H2487   1.082       .  S
N2488      N2489   1.321       .  A
N2488      C2492   1.342       .  A
N2489      C2490   1.345       .  A
C2490      C2491   1.390       .  A
C2490      H2493   1.081       .  S
C2491      C2492   1.387       .  A
C2491      C3036   1.488       .  S
C2492      H2494   1.081       .  S
O2495     Cu2503   2.002       .  S
O2495      C2505   1.276       .  A
O2496     Cu2503   1.999       .  S
O2496      C2506   1.277       .  A
O2497     Cu2503   2.003       .  S
O2497      C2507   1.277       .  A
O2498     Cu2503   2.002       .  S
O2498      C2508   1.277       .  A
O2499     Cu2504   2.004       .  S
O2499      C2508   1.277       .  A
O2500     Cu2504   2.003       .  S
O2500      C2507   1.277       .  A
O2501     Cu2504   2.004       .  S
O2501      C2506   1.277       .  A
O2502     Cu2504   2.000       .  S
O2502      C2505   1.277       .  A
Cu2503    Cu2504   2.378       .  S
N2509      N2510   1.321       .  A
N2509     Cu2517   2.072       .  S
N2510      C2511   1.341       .  A
N2510     Cu2516   2.051       .  S
C2511      H2514   1.082       .  S
C2512      C2513   1.384       .  A
C2513      H2515   1.082       .  S
Cu2516     N2519   2.051       .  S
Cu2517     N2527   2.073       .  S
Cu2518     N2520   2.069       .  S
Cu2518     N2526   2.070       .  S
N2519      N2520   1.321       .  A
N2519      C2523   1.341       .  A
N2520      C2521   1.345       .  A
C2521      C2522   1.383       .  A
C2522      C2523   1.378       .  A
C2522      C2629   1.462       .  S
C2523      H2525   1.082       .  S
N2526      N2527   1.322       .  A
N2526      C2530   1.342       .  A
N2527      C2528   1.344       .  A
C2528      C2529   1.388       .  A
C2528      H2531   1.081       .  S
C2529      C2530   1.387       .  A
C2529      C3012   1.485       .  S
C2530      H2532   1.081       .  S
N2533      N2534   1.321       .  A
N2533     Cu2541   2.067       .  S
N2534      C2535   1.340       .  A
N2534     Cu2540   2.047       .  S
C2535      H2538   1.082       .  S
C2536      C2537   1.382       .  A
C2536      C2755   1.459   1_455  S
C2537      H2539   1.082       .  S
Cu2540     N2543   2.046       .  S
Cu2541     N2551   2.068       .  S
Cu2542     N2544   2.066       .  S
Cu2542     N2550   2.067       .  S
N2543      N2544   1.321       .  A
N2543      C2547   1.339       .  A
C2545      C2546   1.382       .  A
C2545      H2548   1.082       .  S
C2546      C2615   1.459       .  S
C2547      H2549   1.082       .  S
N2550      N2551   1.321       .  A
N2550      C2554   1.342       .  A
N2551      C2552   1.343       .  A
C2552      C2553   1.387       .  A
C2552      H2555   1.081       .  S
C2553      C2554   1.387       .  A
C2553      C3015   1.484       .  S
C2554      H2556   1.081       .  S
N2557      N2558   1.321       .  A
N2557      C2561   1.345       .  A
N2557     Cu2565   2.073       .  S
N2558      C2559   1.342       .  A
N2558     Cu2564   2.056       .  S
C2559      C2560   1.379       .  A
C2559      H2562   1.082       .  S
C2560      C2561   1.384       .  A
C2560      C2632   1.464       .  S
C2561      H2563   1.082       .  S
Cu2564     N2567   2.056       .  S
Cu2565     N2575   2.074       .  S
Cu2566     N2568   2.075       .  S
Cu2566     N2574   2.075       .  S
N2567      N2568   1.321       .  A
N2567      C2571   1.342       .  A
N2568      C2569   1.345       .  A
C2569      C2570   1.384       .  A
C2569      H2572   1.082       .  S
C2570      C2571   1.379       .  A
C2571      H2573   1.082       .  S
N2574      N2575   1.321       .  A
N2574      C2578   1.344       .  A
N2575      C2576   1.344       .  A
C2576      C2577   1.388       .  A
C2576      H2579   1.081       .  S
C2577      C2578   1.388       .  A
C2577      C2988   1.487       .  S
C2578      H2580   1.081       .  S
N2581      N2582   1.322       .  A
N2581      C2585   1.345       .  A
N2581     Cu2589   2.077       .  S
N2582      C2583   1.342       .  A
N2582     Cu2588   2.059       .  S
C2583      C2584   1.379       .  A
C2583      H2586   1.082       .  S
C2584      C2585   1.384       .  A
C2584      C2618   1.464       .  S
C2585      H2587   1.082       .  S
Cu2588     N2591   2.058       .  S
Cu2589     N2599   2.077       .  S
Cu2590     N2592   2.068       .  S
Cu2590     N2598   2.069       .  S
N2591      N2592   1.321       .  A
N2591      C2595   1.342       .  A
N2592      C2593   1.345       .  A
C2593      C2594   1.383       .  A
C2593      H2596   1.082       .  S
C2594      C2595   1.380       .  A
C2595      H2597   1.082       .  S
N2598      N2599   1.321       .  A
N2598      C2602   1.343       .  A
N2599      C2600   1.345       .  A
C2600      C2601   1.389       .  A
C2600      H2603   1.081       .  S
C2601      C2602   1.387       .  A
C2601      C2991   1.487       .  S
C2602      H2604   1.081       .  S
O2605     Cu2613   1.994       .  S
O2605      C2615   1.277       .  A
O2606     Cu2613   1.994       .  S
O2606      C2616   1.275       .  A
O2607     Cu2613   2.003       .  S
O2607      C2617   1.276       .  A
O2608     Cu2613   2.008       .  S
O2608      C2618   1.278       .  A
O2609     Cu2614   2.001       .  S
O2609      C2618   1.276       .  A
O2610     Cu2614   2.002       .  S
O2610      C2617   1.277       .  A
O2611     Cu2614   1.998       .  S
O2611      C2616   1.277       .  A
O2612     Cu2614   1.998       .  S
O2612      C2615   1.276       .  A
Cu2613    Cu2614   2.379       .  S
O2619      C2629   1.276       .  A
O2620     Cu2627   1.998   1_655  S
O2620      C2630   1.277   1_655  A
O2621     Cu2627   2.004   1_655  S
O2622      C2632   1.276       .  A
O2623     Cu2628   2.005       .  S
O2623      C2632   1.278       .  A
O2624     Cu2628   2.002       .  S
O2624      C2631   1.276       .  A
O2625     Cu2628   2.003       .  S
O2626     Cu2628   2.003       .  S
O2626      C2629   1.278       .  A
C2631      C2636   1.464       .  S
N2633      C2637   1.346       .  A
N2634     Cu2640   2.060       .  S
C2635      C2636   1.379       .  A
C2636      C2637   1.383       .  A
C2637      H2639   1.082       .  S
Cu2640     N2643   2.060       .  S
Cu2641     N2651   2.077       .  S
Cu2642     N2644   2.068       .  S
Cu2642     N2650   2.069       .  S
N2643      N2644   1.321       .  A
N2643      C2647   1.342       .  A
N2644      C2645   1.345       .  A
C2645      C2646   1.382       .  A
C2645      H2648   1.082       .  S
C2646      C2647   1.381       .  A
C2647      H2649   1.082       .  S
N2650      N2651   1.321       .  A
N2650      C2654   1.343       .  A
N2651      C2652   1.345       .  A
C2652      C2653   1.388       .  A
C2653      C2654   1.386       .  A
C2653      C2967   1.484       .  S
C2654      H2656   1.081       .  S
N2657      N2658   1.322       .  A
N2657      C2661   1.346       .  A
N2657     Cu2665   2.077       .  S
N2658      C2659   1.343       .  A
N2658     Cu2664   2.059       .  S
C2659      C2660   1.380       .  A
C2659      H2662   1.082       .  S
C2660      C2661   1.384       .  A
C2660      C2693   1.466       .  S
C2661      H2663   1.082       .  S
Cu2664     N2667   2.058   1_655  S
Cu2665     N2675   2.078       .  S
Cu2666     N2668   2.071   1_655  S
Cu2666     N2674   2.072       .  S
N2667      N2668   1.321       .  A
N2667      C2671   1.342       .  A
C2669      C2670   1.383       .  A
C2669      H2672   1.082       .  S
C2671      H2673   1.082       .  S
N2674      N2675   1.322       .  A
N2674      C2678   1.344       .  A
N2675      C2676   1.345       .  A
C2676      C2677   1.387       .  A
C2676      H2679   1.082       .  S
C2677      C2678   1.386       .  A
C2677      C2964   1.484       .  S
C2678      H2680   1.081       .  S
O2681     Cu2689   2.000       .  S
O2681      C2691   1.278       .  A
O2682     Cu2689   1.996       .  S
O2682      C2692   1.275       .  A
O2683     Cu2689   2.004       .  S
O2683      C2693   1.276       .  A
O2684     Cu2689   2.007       .  S
O2684      C2694   1.278       .  A
O2685     Cu2690   2.005       .  S
O2685      C2694   1.277       .  A
O2686     Cu2690   2.009       .  S
O2686      C2693   1.278       .  A
O2687     Cu2690   1.995       .  S
O2687      C2692   1.277       .  A
O2688     Cu2690   1.994       .  S
O2688      C2691   1.275       .  A
Cu2689    Cu2690   2.379       .  S
C2692      C2722   1.458       .  S
N2695      N2696   1.322       .  A
N2695     Cu2703   2.072       .  S
N2696      C2697   1.341       .  A
N2696     Cu2702   2.055       .  S
C2697      H2700   1.082       .  S
C2698      C2699   1.383       .  A
C2699      H2701   1.082       .  S
Cu2702     N2705   2.055       .  S
Cu2703     N2713   2.072       .  S
Cu2704     N2712   2.067       .  S
N2706      C2707   1.345       .  A
C2707      C2708   1.382       .  A
C2707      H2710   1.082       .  S
C2708      C2709   1.379       .  A
N2712      N2713   1.321       .  A
N2712      C2716   1.343       .  A
N2713      C2714   1.344       .  A
C2714      C2715   1.388       .  A
C2714      H2717   1.080       .  S
C2715      C2716   1.387       .  A
C2715      C2943   1.485       .  S
N2719      C2723   1.344   1_545  A
N2720     Cu2726   2.045       .  S
C2721      C2722   1.377   1_545  A
C2721      H2724   1.082       .  S
C2722      C2723   1.382       .  A
C2723      H2725   1.082       .  S
Cu2727     N2737   2.065       .  S
Cu2728     N2730   2.067       .  S
N2729      N2730   1.320       .  A
N2729      C2733   1.340       .  A
N2730      C2731   1.344       .  A
C2731      C2732   1.383       .  A
C2731      H2734   1.082       .  S
C2732      C2733   1.378       .  A
C2732      C2877   1.459       .  S
C2733      H2735   1.082       .  S
N2736      N2737   1.321       .  A
N2736      C2740   1.343       .  A
N2737      C2738   1.342       .  A
C2738      C2739   1.387       .  A
C2738      H2741   1.080       .  S
C2739      C2740   1.388       .  A
C2739      C2940   1.484       .  S
O2743     Cu2751   1.998       .  S
O2743      C2753   1.276       .  A
O2744     Cu2751   2.002       .  S
O2744      C2754   1.277       .  A
O2745     Cu2751   1.997       .  S
O2745      C2755   1.277       .  A
O2746     Cu2751   1.989       .  S
O2746      C2756   1.275       .  A
O2747     Cu2752   1.996       .  S
O2747      C2756   1.277       .  A
O2748     Cu2752   1.996       .  S
O2748      C2755   1.275       .  A
O2749     Cu2752   2.000       .  S
O2749      C2754   1.276       .  A
O2750     Cu2752   2.007       .  S
O2750      C2753   1.278       .  A
Cu2751    Cu2752   2.380       .  S
C2754      C2784   1.462       .  S
N2757      N2758   1.322       .  A
N2757     Cu2765   2.071       .  S
N2758      C2759   1.342       .  A
N2758     Cu2764   2.062       .  S
C2759      H2762   1.082       .  S
C2760      C2761   1.383       .  A
C2761      H2763   1.082       .  S
Cu2764     N2767   2.063       .  S
Cu2765     N2775   2.071       .  S
Cu2766     N2768   2.065       .  S
Cu2766     N2774   2.066       .  S
N2767      N2768   1.321       .  A
N2767      C2771   1.343       .  A
N2768      C2769   1.344       .  A
C2769      C2770   1.382       .  A
C2769      H2772   1.082       .  S
C2770      C2771   1.381       .  A
C2771      H2773   1.082       .  S
N2774      N2775   1.321       .  A
N2774      C2778   1.343       .  A
N2775      C2776   1.343       .  A
C2776      C2777   1.387       .  A
C2776      H2779   1.081       .  S
C2777      C2778   1.386       .  A
C2777      C2916   1.481       .  S
C2778      H2780   1.081       .  S
N2781      N2782   1.322       .  A
N2781      C2785   1.344       .  A
N2781     Cu2789   2.069       .  S
N2782      C2783   1.342       .  A
N2782     Cu2788   2.059       .  S
C2783      C2784   1.379       .  A
C2783      H2786   1.082       .  S
C2784      C2785   1.382       .  A
C2785      H2787   1.082       .  S
Cu2788     N2791   2.058       .  S
Cu2789     N2799   2.070       .  S
Cu2790     N2792   2.065       .  S
Cu2790     N2798   2.065       .  S
N2791      N2792   1.321       .  A
N2791      C2795   1.342       .  A
N2792      C2793   1.344   1_565  A
C2793      C2794   1.382       .  A
C2793      H2796   1.082       .  S
C2794      C2795   1.380   1_545  A
C2795      H2797   1.082       .  S
N2798      N2799   1.321       .  A
N2798      C2802   1.341       .  A
N2799      C2800   1.344       .  A
C2800      C2801   1.388       .  A
C2800      H2803   1.081       .  S
C2801      C2802   1.386       .  A
C2801      C2919   1.482       .  S
C2802      H2804   1.081       .  S
O2805     Cu2813   2.003       .  S
O2805      C2815   1.278       .  A
O2806      C2816   1.276       .  A
O2807      C2817   1.276       .  A
O2808     Cu2813   2.004       .  S
O2808      C2818   1.277       .  A
O2809     Cu2814   2.004       .  S
O2810     Cu2814   2.006       .  S
O2810      C2817   1.278       .  A
O2811     Cu2814   2.003       .  S
O2811      C2816   1.278       .  A
O2812     Cu2814   2.001       .  S
C2817      C2822   1.464       .  S
N2819      N2820   1.322       .  A
N2819      C2823   1.346       .  A
N2819     Cu2827   2.073       .  S
N2820      C2821   1.342       .  A
N2820     Cu2826   2.058       .  S
C2821      C2822   1.379       .  A
C2821      H2824   1.082       .  S
C2822      C2823   1.384       .  A
C2823      H2825   1.082       .  S
Cu2826     N2829   2.058       .  S
Cu2827     N2837   2.073       .  S
Cu2828     N2830   2.065       .  S
Cu2828     N2836   2.065       .  S
N2829      N2830   1.321       .  A
N2829      C2833   1.342       .  A
N2830      C2831   1.344       .  A
C2831      C2832   1.383       .  A
C2831      H2834   1.082       .  S
C2832      C2833   1.380       .  A
C2833      H2835   1.082       .  S
N2836      N2837   1.321       .  A
N2836      C2840   1.341       .  A
N2837      C2838   1.344       .  A
C2838      C2839   1.388       .  A
C2838      H2841   1.081       .  S
C2839      C2840   1.386       .  A
C2839      C2892   1.483       .  S
C2840      H2842   1.081       .  S
N2843      N2844   1.322       .  A
N2843      C2847   1.345       .  A
N2843     Cu2851   2.070       .  S
N2844      C2845   1.342       .  A
N2844     Cu2850   2.061       .  S
C2845      C2846   1.380       .  A
C2845      H2848   1.082       .  S
C2846      C2847   1.382       .  A
C2846      C2880   1.463       .  S
C2847      H2849   1.082       .  S
Cu2850     N2853   2.061       .  S
Cu2851     N2861   2.070       .  S
Cu2852     N2854   2.066       .  S
Cu2852     N2860   2.066       .  S
N2853      N2854   1.321       .  A
N2853      C2857   1.342       .  A
N2854      C2855   1.344       .  A
C2855      C2856   1.382       .  A
C2855      H2858   1.082       .  S
C2856      C2857   1.380       .  A
C2857      H2859   1.082       .  S
N2860      N2861   1.321       .  A
N2860      C2864   1.342       .  A
N2861      C2862   1.344       .  A
C2862      C2863   1.388       .  A
C2862      H2865   1.081       .  S
C2863      C2864   1.386       .  A
C2863      C2895   1.483       .  S
C2864      H2866   1.081       .  S
O2867     Cu2875   2.000       .  S
O2867      C2877   1.277       .  A
O2868     Cu2875   2.000       .  S
O2868      C2878   1.276       .  A
O2869     Cu2875   1.997       .  S
O2869      C2879   1.275       .  A
O2870     Cu2875   2.003       .  S
O2870      C2880   1.277       .  A
O2871     Cu2876   2.002       .  S
O2871      C2880   1.276       .  A
O2872     Cu2876   2.004       .  S
O2872      C2879   1.278       .  A
O2873     Cu2876   1.996       .  S
O2873      C2878   1.277       .  A
O2874     Cu2876   1.995       .  S
O2874      C2877   1.275       .  A
Cu2875    Cu2876   2.379       .  S
C2881      C2882   1.398       .  A
C2881      C2886   1.403       .  A
C2881      H2897   1.084       .  S
C2882      C2883   1.403       .  A
C2882      H2898   1.084       .  S
C2883      C2893   1.402       .  A
C2883      C2884   1.411       .  A
C2884      C2890   1.410       .  A
C2884      C2885   1.410       .  A
C2885      C2887   1.411       .  A
C2885      C2886   1.410       .  A
C2886      C2894   1.400       .  A
C2887      C2896   1.401       .  A
C2887      C2888   1.403       .  A
C2888      C2889   1.398       .  A
C2888      H2899   1.084       .  S
C2889      C2890   1.403       .  A
C2889      H2900   1.083       .  S
C2890      C2891   1.400       .  A
C2891      C2892   1.408       .  A
C2891      H2901   1.082       .  S
C2892      C2893   1.407       .  A
C2893      H2902   1.082       .  S
C2894      C2895   1.408       .  A
C2894      H2903   1.082       .  S
C2895      C2896   1.407       .  A
C2896      H2904   1.082       .  S
C2905      C2906   1.398       .  A
C2905      C2910   1.403       .  A
C2905      H2921   1.084       .  S
C2906      C2907   1.403       .  A
C2906      H2922   1.083       .  S
C2907      C2917   1.401       .  A
C2907      C2908   1.410       .  A
C2908      C2914   1.411       .  A
C2908      C2909   1.410       .  A
C2909      C2911   1.410       .  A
C2909      C2910   1.411       .  A
C2910      C2918   1.402       .  A
C2911      C2920   1.400       .  A
C2911      C2912   1.403       .  A
C2912      C2913   1.397       .  A
C2913      C2914   1.403       .  A
C2914      C2915   1.401       .  A
C2915      C2916   1.407       .  A
C2915      H2925   1.082       .  S
C2916      C2917   1.407       .  A
C2917      H2926   1.082       .  S
C2918      C2919   1.407       .  A
C2918      H2927   1.082       .  S
C2919      C2920   1.408       .  A
C2920      H2928   1.082       .  S
C2929      C2930   1.398       .  A
C2929      H2945   1.084       .  S
C2930      H2946   1.084       .  S
C2931      C2941   1.402       .  A
C2931      C2932   1.410       .  A
C2932      C2938   1.410       .  A
C2932      C2933   1.410       .  A
C2933      C2935   1.410       .  A
C2933      C2934   1.410       .  A
C2934      C2942   1.401       .  A
C2935      C2944   1.401       .  A
C2935      C2936   1.403       .  A
C2936      C2937   1.397       .  A
C2937      C2938   1.403       .  A
C2938      C2939   1.400       .  A
C2939      C2940   1.408       .  A
C2939      H2949   1.080       .  S
C2940      C2941   1.408       .  A
C2941      H2950   1.081       .  S
C2942      C2943   1.408       .  A
C2942      H2951   1.081       .  S
C2943      C2944   1.408       .  A
C2944      H2952   1.081       .  S
C2953      C2954   1.399       .  A
C2953      C2958   1.403       .  A
C2954      C2955   1.404       .  A
C2955      C2965   1.403       .  A
C2955      C2956   1.410       .  A
C2956      C2962   1.411       .  A
C2956      C2957   1.412       .  A
C2957      C2959   1.410       .  A
C2957      C2958   1.411       .  A
C2958      C2966   1.403       .  A
C2959      C2968   1.402       .  A
C2959      C2960   1.404       .  A
C2960      C2961   1.399       .  A
C2960      H2971   1.083       .  S
C2961      C2962   1.403       .  A
C2961      H2972   1.084       .  S
C2962      C2963   1.403       .  A
C2963      C2964   1.407       .  A
C2963      H2973   1.083       .  S
C2964      C2965   1.408       .  A
C2965      H2974   1.083       .  S
C2966      C2967   1.407       .  A
C2967      C2968   1.408       .  A
C2968      H2976   1.082       .  S
C2977      C2978   1.399       .  A
C2977      C2982   1.403       .  A
C2977      H2993   1.084       .  S
C2978      C2979   1.404       .  A
C2978      H2994   1.084       .  S
C2979      C2989   1.403       .  A
C2979      C2980   1.410       .  A
C2980      C2986   1.410       .  A
C2980      C2981   1.412       .  A
C2981      C2983   1.410       .  A
C2981      C2982   1.411       .  A
C2982      C2990   1.403       .  A
C2983      C2992   1.402       .  A
C2983      C2984   1.404       .  A
C2984      C2985   1.399       .  A
C2984      H2995   1.084       .  S
C2985      C2986   1.404       .  A
C2985      H2996   1.084       .  S
C2986      C2987   1.403       .  A
C2987      C2988   1.409       .  A
C2987      H2997   1.082       .  S
C2988      C2989   1.409       .  A
C2989      H2998   1.082       .  S
C2990      C2991   1.408       .  A
C2990      H2999   1.082       .  S
C2991      C2992   1.409       .  A
C2992      H3000   1.082       .  S
C3001      C3002   1.397       .  A
C3001      C3006   1.403       .  A
C3001      H3017   1.085       .  S
C3002      C3003   1.403       .  A
C3002      H3018   1.084       .  S
C3003      C3013   1.401       .  A
C3003      C3004   1.410       .  A
C3004      C3010   1.411       .  A
C3004      C3005   1.410       .  A
C3005      C3007   1.410       .  A
C3005      C3006   1.411       .  A
C3006      C3014   1.401       .  A
C3007      C3016   1.401       .  A
C3007      C3008   1.403       .  A
C3008      C3009   1.398       .  A
C3008      H3019   1.083       .  S
C3009      C3010   1.403       .  A
C3009      H3020   1.085       .  S
C3010      C3011   1.402       .  A
C3011      C3012   1.408       .  A
C3011      H3021   1.083       .  S
C3012      C3013   1.408       .  A
C3013      H3022   1.082       .  S
C3014      C3015   1.407       .  A
C3014      H3023   1.083       .  S
C3015      C3016   1.408       .  A
C3016      H3024   1.081       .  S
C3025      C3026   1.399       .  A
C3025      C3030   1.403       .  A
C3025      H3041   1.083       .  S
C3026      C3027   1.404       .  A
C3026      H3042   1.083       .  S
C3027      C3037   1.402       .  A
C3027      C3028   1.410       .  A
C3028      C3029   1.411       .  A
C3029      C3030   1.411       .  A
C3030      C3038   1.403   1_556  A
C3031      C3040   1.401   1_556  A
C3031      C3032   1.403       .  A
C3032      C3033   1.398       .  A
C3032      H3043   1.083       .  S
C3033      C3034   1.403       .  A
C3033      H3044   1.083       .  S
C3034      C3035   1.402       .  A
C3035      H3045   1.082       .  S
C3036      C3037   1.410       .  A
C3037      H3046   1.081       .  S
C3038      C3039   1.408       .  A
C3038      H3047   1.082       .  S
C3040      H3048   1.082   1_455  S
C3049      C3050   1.398       .  A
C3049      H3065   1.083       .  S
C3050      C3051   1.403       .  A
C3050      H3066   1.084       .  S
C3051      C3061   1.402       .  A
C3052      C3058   1.410       .  A
C3052      C3053   1.411       .  A
C3053      C3055   1.411       .  A
C3053      C3054   1.410       .  A
C3054      C3062   1.402   1_566  A
C3055      C3064   1.402   1_556  A
C3055      C3056   1.403       .  A
C3056      C3057   1.398       .  A
C3056      H3067   1.083       .  S
C3057      C3058   1.404       .  A
C3057      H3068   1.083       .  S
C3058      C3059   1.402       .  A
C3059      H3069   1.083       .  S
C3060      C3061   1.407       .  A
C3061      H3070   1.083       .  S
C3062      C3063   1.408       .  A
C3062      H3071   1.082       .  S
C3063      C3064   1.407   1_545  A
C3064      H3072   1.083       .  S
C3073      C3074   1.398       .  A
C3073      C3078   1.403       .  A
C3073      H3089   1.084       .  S
C3074      C3075   1.403       .  A
C3074      H3090   1.084       .  S
C3075      C3085   1.402       .  A
C3075      C3076   1.411       .  A
C3076      C3082   1.410       .  A
C3076      C3077   1.410       .  A
C3077      C3079   1.411       .  A
C3077      C3078   1.410       .  A
C3078      C3086   1.401   1_556  A
C3079      C3088   1.401   1_556  A
C3079      C3080   1.403       .  A
C3080      C3081   1.397       .  A
C3080      H3091   1.084       .  S
C3081      C3082   1.403       .  A
C3081      H3092   1.084       .  S
C3082      C3083   1.400       .  A
C3083      C3084   1.408       .  A
C3083      H3093   1.083       .  S
C3084      C3085   1.407       .  A
C3085      H3094   1.083       .  S
C3086      C3087   1.408       .  A
C3086      H3095   1.083       .  S
C3087      C3088   1.407       .  A
C3088      H3096   1.083       .  S
