geometry optimzed in LAMMPS
_audit_creation_date              2020-11-30 
_audit_creation_method            'lammps2cif' 
_symmetry_space_group_name_H-M    'P1' 
_symmetry_Int_Tables_number       1 
_symmetry_cell_setting            triclinic 
loop_ 
_symmetry_equiv_pos_as_xyz 
  x,y,z 
_cell_length_a                    33.7405631 
_cell_length_b                    32.83833175339547 
_cell_length_c                    32.89428879510495 
_cell_angle_alpha                 89.34854585631324 
_cell_angle_beta                  90.21378520778168 
_cell_angle_gamma                 90.16093040524979 
loop_ 
_atom_site_label 
_atom_site_type_symbol 
_atom_site_fract_x 
_atom_site_fract_y 
_atom_site_fract_z 
_atom_site_charge 
C1          C  0.33198858  0.32739360  0.14723212    -0.02900
C2          C  0.32691019  0.22399000  0.27162300    -0.02900
C3          C  0.21334561  0.20978010  0.15552876    -0.02900
C4          C  0.21528125  0.34247500  0.26012809    -0.02900
C5          C  0.32334023  0.20786756  0.65727039    -0.02900
C6          C  0.21550793  0.22508078  0.77519807    -0.02900
C7          C  0.22815612  0.33646347  0.65068083    -0.02900
C8          C  0.33853682  0.32957235  0.77572971    -0.02900
C9          C  0.43867194  0.43565636  0.05417016     0.42100
N10         N  0.45643674  0.47950637  0.00913308     0.01000
C11         C  0.62780098  0.48280478  0.89469588    -0.06900
H12         H  0.64885017  0.50433346  0.05116036     0.06500
C13         C  0.57347571  0.63757172  0.03470529    -0.07200
Co14       Co  0.53056645  0.45487393  0.96695635     0.74200
N15         N  0.59885459  0.49047346  0.01264630    -0.26400
Co16       Co  0.59852730  0.53490770  0.96661446     0.74100
C17         C  0.61127251  0.62632189  0.05333756     0.42200
N18         N  0.47793348  0.59997582  0.00700788     0.00600
N19         N  0.59539057  0.58148061  0.00922472     0.00700
N20         N  0.58460508  0.43020195  0.89645549    -0.47300
H21         H  0.49373269  0.39616614  0.04264207     0.06500
N22         N  0.57309559  0.46016893  0.01276917     0.01000
N23         N  0.59570928  0.57930394  0.92078023     0.00700
C24         C  0.61115748  0.62164175  0.87330445     0.42300
N25         N  0.45209685  0.56976607  0.00718289    -0.25900
C26         C  0.47968553  0.42322271  0.89417627    -0.06800
N27         N  0.42760583  0.47019940  0.03478014    -0.47000
N28         N  0.62347247  0.58801708  0.89369408    -0.47200
C29         C  0.44159832  0.43467295  0.87558899     0.42100
N30         N  0.57557596  0.45816048  0.92368829     0.01000
N31         N  0.45256495  0.56882408  0.91967418    -0.25900
N32         N  0.48534571  0.45259758  0.00968714    -0.26400
N33         N  0.47857057  0.59880792  0.91867940     0.00600
H34         H  0.39830987  0.55755008  0.88782144     0.06500
H35         H  0.55570985  0.66048645  0.88480397     0.06500
N36         N  0.60086065  0.48883522  0.92369439    -0.26400
N37         N  0.56610451  0.60801239  0.00778092    -0.26100
N38         N  0.45775416  0.47849256  0.92094786     0.01000
C39         C  0.61007227  0.44807633  0.06500981     0.42400
C40         C  0.42488867  0.57668461  0.03569733    -0.07300
N41         N  0.56639918  0.60579129  0.91998574    -0.26100
H42         H  0.55593465  0.66473602  0.03874072     0.06500
N43         N  0.57933518  0.43383104  0.04286772    -0.47300
H44         H  0.39890626  0.55810961  0.04122570     0.06500
C45         C  0.43688466  0.61363739  0.87140144     0.42200
C46         C  0.47679832  0.42363192  0.03725570    -0.06800
Co47       Co  0.45408727  0.52414683  0.96426497     0.73800
N48         N  0.46949824  0.62813850  0.03394471    -0.47000
C49         C  0.61713303  0.44376062  0.87647233     0.42500
N50         N  0.43004221  0.46913908  0.89405217    -0.47000
Co51       Co  0.52203943  0.60383248  0.96335303     0.73900
C52         C  0.57349940  0.63376229  0.89100594    -0.07300
C53         C  0.62351227  0.48532405  0.04433209    -0.06900
N54         N  0.48697238  0.45191456  0.92193303    -0.26400
N55         N  0.62338074  0.59163484  0.03565618    -0.47200
H56         H  0.65285623  0.50252119  0.88861406     0.06500
C57         C  0.42490269  0.57556293  0.89126403    -0.07300
Cl58       Cl  0.52634746  0.52943922  0.96528853    -0.50300
C59         C  0.43647423  0.61558272  0.05334993     0.42200
H60         H  0.49740851  0.39623257  0.88999349     0.06400
N61         N  0.47001538  0.62652190  0.89058413    -0.47000
C62         C  0.32898300  0.71758025  0.14702831    -0.02900
C63         C  0.21966634  0.82946961  0.14634563    -0.02900
C64         C  0.22088465  0.72620720  0.28221204    -0.02900
C65         C  0.33344185  0.84058256  0.26736892    -0.02900
C66         C  0.43567301  0.94487158  0.36607441     0.42100
N67         N  0.47315103  0.95806411  0.41724130     0.01000
C68         C  0.47003276  0.12907845  0.53783353    -0.06900
H69         H  0.48643511  0.16331922  0.38661375     0.06500
C70         C  0.62044717  0.07971126  0.39161921    -0.07200
Co71       Co  0.44663301  0.03209310  0.46107057     0.74200
N72         N  0.47801766  0.10627716  0.41880049    -0.26400
Co73       Co  0.52200074  0.10403761  0.46352846     0.74100
C74         C  0.60878859  0.11827388  0.37292437     0.42200
N75         N  0.58931606  0.98113607  0.41946308     0.00600
N76         N  0.56704103  0.10243295  0.41968556     0.00700
N77         N  0.42115971  0.08202871  0.53428527    -0.47300
H78         H  0.39573510  0.00014359  0.37983866     0.06500
N79         N  0.44980083  0.07841288  0.41742336     0.01000
N80         N  0.56545815  0.10048901  0.50860015     0.00700
C81         C  0.60505654  0.11430901  0.55780016     0.42300
N82         N  0.56093068  0.95340283  0.41974961    -0.25900
C83         C  0.41388092  0.97754491  0.52977368    -0.06800
N84         N  0.46724917  0.93156558  0.38782477    -0.47000
N85         N  0.57301693  0.12784995  0.53699862    -0.47200
C86         C  0.42387528  0.93847841  0.54855418     0.42100
N87         N  0.44846006  0.07606357  0.50618915     0.01000
N88         N  0.56014142  0.95246939  0.50817661    -0.25900
N89         N  0.44692588  0.98776083  0.41663140    -0.26400
N90         N  0.58870618  0.98006732  0.50779273     0.00600
H91         H  0.55317198  0.89586113  0.54159715     0.06500
H92         H  0.64266502  0.05737391  0.54563016     0.06500
N93         N  0.47717926  0.10342622  0.50725879    -0.26400
N94         N  0.59295189  0.07234231  0.42010121    -0.26100
N95         N  0.46972490  0.95591618  0.50607756     0.01000
C96         C  0.43328919  0.12200337  0.37143897     0.42400
C97         C  0.56882487  0.92576458  0.39116816    -0.07300
N98         N  0.59130163  0.07042094  0.50872341    -0.26100
H99         H  0.64649526  0.06145786  0.38623421     0.06500
N100        N  0.42214132  0.08702023  0.39000456    -0.47300
H101        H  0.55191076  0.89835420  0.38557761     0.06500
C102        C  0.60745359  0.93705578  0.55344571     0.42200
C103        C  0.42168219  0.98183670  0.38580921    -0.06800
Co104      Co  0.51584756  0.95409445  0.46312677     0.73800
N105        N  0.61720252  0.97342170  0.39236610    -0.47000
C106        C  0.43321050  0.11437389  0.55608851     0.42500
N107        N  0.45852361  0.92646896  0.53161179    -0.47000
Co108      Co  0.59109717  0.02599879  0.46393579     0.73900
C109        C  0.61710154  0.07617456  0.53909243    -0.07300
C110        C  0.46993411  0.13534342  0.39100830    -0.06900
N111        N  0.44368863  0.98578623  0.50428460    -0.26400
N112        N  0.57585049  0.13104832  0.39229370    -0.47200
H113        H  0.48745786  0.15570229  0.54519096     0.06500
C114        C  0.56928312  0.92394230  0.53636027    -0.07300
Cl115      Cl  0.51891348  0.02900740  0.46295254    -0.50300
C116        C  0.60573421  0.93958242  0.37248901     0.42200
H117        H  0.38689260  0.99504774  0.53160994     0.06400
N118        N  0.61768539  0.97157520  0.53365462    -0.47000
C119        C  0.72961608  0.33925702  0.78885467    -0.02900
C120        C  0.81992158  0.33496817  0.63943590    -0.02900
C121        C  0.71427733  0.20912745  0.65923493    -0.02900
C122        C  0.81810574  0.20143626  0.76925896    -0.02900
C123        C  0.33554245  0.72359650  0.77390864    -0.02900
C124        C  0.32610966  0.82943429  0.64998066    -0.02900
C125        C  0.21517956  0.70352419  0.66570615    -0.02900
C126        C  0.20801282  0.82230283  0.77231779    -0.02900
C127        C  0.71882027  0.84372928  0.27722673    -0.02900
C128        C  0.83803516  0.72722329  0.26864651    -0.02900
C129        C  0.71083977  0.72483860  0.16338052    -0.02900
C130        C  0.82856656  0.84897576  0.16319403    -0.02900
C131        C  0.71054590  0.72585446  0.76900848    -0.02900
C132        C  0.82297941  0.70474248  0.65477190    -0.02900
C133        C  0.72319884  0.83544831  0.64501685    -0.02900
C134        C  0.83733125  0.83542632  0.75760322    -0.02900
C135        C  0.93912742  0.11269322  0.05730028     0.42100
N136        N  0.95381623  0.06947371  0.01052182     0.01000
C137        C  0.11968185  0.94487530  0.00643103    -0.06900
H138        H  0.15190958  0.09454515  0.99142585     0.06500
C139        C  0.07205215  0.09714907  0.85677855    -0.07200
Co140      Co  0.02501190  0.02011727  0.03353182     0.74200
N141        N  0.09730522  0.06229070  0.00176518    -0.26400
Co142      Co  0.09362341  0.01973328  0.95519562     0.74100
C143        C  0.11107616  0.11258750  0.86827498     0.42200
N144        N  0.97658994  0.07342155  0.88894529     0.00600
N145        N  0.09344598  0.06554119  0.91052507     0.00700
N146        N  0.07579856  0.94630865  0.05804428    -0.47300
H147        H  0.99616970  0.09549378  0.09313016     0.06500
N148        N  0.07126713  0.06263723  0.03160890     0.01000
N149        N  0.08854548  0.97704519  0.90898485     0.00700
C150        C  0.10382874  0.93215836  0.86488203     0.42300
N151        N  0.95042987  0.07430458  0.91867265    -0.25900
C152        C  0.96937874  0.94799666  0.05950667    -0.06800
N153        N  0.92697942  0.09652864  0.02156202    -0.47000
N154        N  0.11546759  0.94932233  0.89999263    -0.47200
C155        C  0.93110000  0.93194601  0.04595505     0.42100
N156        N  0.06717549  0.97389139  0.02958847     0.01000
N157        N  0.94402918  0.98636277  0.91589248    -0.25900
N158        N  0.98291823  0.06619496  0.03713701    -0.26400
N159        N  0.97022603  0.98506840  0.88625267     0.00600
H160        H  0.88874795  0.95532159  0.92665980     0.06500
H161        H  0.05031791  0.94918316  0.82439366     0.06500
N162        N  0.09294359  0.97411665  0.99954357    -0.26400
N163        N  0.06410810  0.06774456  0.88402470    -0.26100
N164        N  0.94921273  0.98099114  0.00623591     0.01000
C165        C  0.11391102  0.10863982  0.04784405     0.42400
C166        C  0.92490667  0.10469525  0.91091824    -0.07300
N167        N  0.05990784  0.97966594  0.88156053    -0.26100
H168        H  0.05329855  0.10528544  0.83128701     0.06500
N169        N  0.08034133  0.08948055  0.05996479    -0.47300
H170        H  0.89833459  0.11083741  0.92806249     0.06500
C171        C  0.92482274  0.94259729  0.86871524     0.42200
C172        C  0.97690053  0.09271313  0.06715655    -0.06800
Co173      Co  0.94873795  0.02798101  0.96292047     0.73800
N174        N  0.96973820  0.10134418  0.86046195    -0.47000
C175        C  0.10839802  0.92630390  0.04529049     0.42500
N176        N  0.92012273  0.95470722  0.01339290    -0.47000
Co177      Co  0.01755635  0.02630362  0.88461817     0.73900
C178        C  0.06714662  0.95247919  0.85221424    -0.07300
C179        C  0.12550889  0.09003368  0.00942385    -0.06900
N180        N  0.97826761  0.97802839  0.03310698    -0.26400
N181        N  0.12237691  0.09169681  0.90208311    -0.47200
H182        H  0.14573628  0.93965014  0.98817861     0.06500
C183        C  0.91455253  0.96019358  0.90785351    -0.07300
Cl184      Cl  0.02121956  0.02348337  0.95905701    -0.50300
C185        C  0.93805427  0.12303740  0.87241376     0.42200
H186        H  0.98633350  0.94006510  0.08640661     0.06400
N187        N  0.95982973  0.95931763  0.85734750    -0.47000
C188        C  0.71631330  0.20707602  0.26270803    -0.02900
C189        C  0.83046798  0.21487226  0.15430763    -0.02900
C190        C  0.72232014  0.34037585  0.14989147    -0.02900
C191        C  0.83144820  0.33812553  0.26574561    -0.02900
C192        C  0.11940928  0.43275567  0.54615489     0.42100
N193        N  0.07106127  0.47324836  0.53260036     0.01000
C194        C  0.95441731  0.47944067  0.35747447    -0.06900
H195        H  0.09339534  0.49831374  0.32607684     0.06500
C196        C  0.09484490  0.63187477  0.41996445    -0.07200
Co197      Co  0.02686449  0.45003987  0.45661980     0.74200
N198        N  0.06700866  0.48697121  0.38459822    -0.26400
Co199      Co  0.02426161  0.53261778  0.38974861     0.74100
C200        C  0.11315866  0.62147859  0.38106159     0.42200
N201        N  0.06603242  0.59422855  0.51578707     0.00600
N202        N  0.06744433  0.57786179  0.39534694     0.00700
N203        N  0.95740384  0.42545366  0.40069474    -0.47300
H204        H  0.10779542  0.39592724  0.48795617     0.06500
N205        N  0.06838108  0.45563154  0.41002286     0.01000
N206        N  0.98148576  0.57880923  0.39407348     0.00700
C207        C  0.94237978  0.62790087  0.37618026     0.42300
N208        N  0.06714223  0.56315938  0.54140535    -0.25900
C209        C  0.95924691  0.41440593  0.51062158    -0.06800
N210        N  0.09901154  0.46506599  0.55993607    -0.47000
N211        N  0.95870358  0.59240144  0.36398540    -0.47200
C212        C  0.94391696  0.42318948  0.55096407     0.42100
N213        N  0.98252667  0.45456550  0.41159187     0.01000
N214        N  0.98104120  0.56031569  0.54192411    -0.25900
N215        N  0.07133138  0.44786353  0.50168141    -0.26400
N216        N  0.97974958  0.59155515  0.51622164     0.00600
H217        H  0.94721494  0.54519246  0.59575536     0.06500
H218        H  0.95324907  0.66081887  0.43689747     0.06500
N219        N  0.98164397  0.48628874  0.38642667    -0.26400
N220        N  0.06677558  0.60341418  0.42604154    -0.26100
N221        N  0.98538773  0.46947277  0.53431410     0.01000
C222        C  0.10740435  0.43893445  0.36127933     0.42400
C223        C  0.09553878  0.56987971  0.56899595    -0.07300
N224        N  0.98139909  0.60358569  0.42532977    -0.26100
H225        H  0.09993000  0.65794597  0.43910665     0.06500
N226        N  0.09183430  0.42617688  0.39704033    -0.47300
H227        H  0.10215736  0.55052305  0.59495439     0.06500
C228        C  0.93243508  0.60290978  0.55829093     0.42200
C229        C  0.10107120  0.42128418  0.50743646    -0.06800
Co230      Co  0.02610382  0.51647110  0.53819363     0.73800
N231        N  0.09216610  0.62284093  0.52452503    -0.47000
C232        C  0.93865837  0.43878929  0.36661637     0.42500
N233        N  0.96110506  0.45779211  0.56371129    -0.47000
Co234      Co  0.02329528  0.59863422  0.47111633     0.73900
C235        C  0.95707841  0.63494593  0.41736939    -0.07300
C236        C  0.09112851  0.47956219  0.35321274    -0.06900
N237        N  0.98533258  0.44441623  0.50319089    -0.26400
N238        N  0.09446838  0.58768602  0.36785830    -0.47200
H239        H  0.94849502  0.49937228  0.33180427     0.06500
C240        C  0.95231878  0.56492155  0.56973688    -0.07300
Cl241      Cl  0.02491686  0.52436270  0.46383791    -0.50300
C242        C  0.11189784  0.60960703  0.55766229     0.42200
H243        H  0.95411569  0.38817562  0.49170025     0.06400
N244        N  0.95161483  0.61803378  0.52539247    -0.47000
C245        C  0.88481520  0.38728769  0.36077681    -0.09500
C246        C  0.91188495  0.41317932  0.34134076     0.06700
C247        C  0.91353493  0.41272543  0.29861947    -0.03300
C248        C  0.88707340  0.38850171  0.27659359    -0.07700
C249        C  0.85858430  0.36275644  0.29532124     0.05800
C250        C  0.85862284  0.36212150  0.33901111    -0.02800
Br251      Br  0.82699834  0.32869397  0.37455738    -0.02500
H252        H  0.88406654  0.38665083  0.39372775     0.09700
H253        H  0.88964866  0.38932645  0.24392372     0.07700
Br254      Br  0.95375260  0.44083502  0.26801881    -0.02900
C255        C  0.73876969  0.37884292  0.21786067    -0.09500
C256        C  0.74824766  0.37131029  0.17644635     0.06700
C257        C  0.78695122  0.38488386  0.16653910    -0.03300
C258        C  0.81719196  0.38325760  0.19695336    -0.07700
C259        C  0.80786069  0.37168298  0.23775324     0.05800
C260        C  0.76931359  0.38504386  0.24684902    -0.02800
Br261      Br  0.76571561  0.43447380  0.27713210    -0.02500
H262        H  0.70840720  0.37911463  0.22811390     0.09700
H263        H  0.84617401  0.39490692  0.18958241     0.07700
Br264      Br  0.79400749  0.42081420  0.12070622    -0.02900
C265        C  0.76032791  0.23775082  0.11923076    -0.09500
C266        C  0.80171070  0.24398486  0.12650584     0.06700
C267        C  0.81390664  0.28208639  0.10921380    -0.03300
C268        C  0.78807263  0.31600153  0.11042060    -0.07700
C269        C  0.74737469  0.31116563  0.12000327     0.05800
C270        C  0.73404714  0.27083416  0.11177122    -0.02800
Br271      Br  0.67919938  0.25919217  0.10112786    -0.02500
H272        H  0.74687629  0.20842194  0.12044169     0.09700
H273        H  0.79917220  0.34466650  0.09972065     0.07700
Br274      Br  0.85565670  0.28607405  0.07007137    -0.02900
C275        C  0.87110674  0.23821273  0.22348286    -0.09500
C276        C  0.85912576  0.24459030  0.18216129     0.06700
C277        C  0.87434282  0.28311520  0.16945611    -0.03300
C278        C  0.87131912  0.31677202  0.19651707    -0.07700
C279        C  0.86132833  0.31034945  0.23833474     0.05800
C280        C  0.87490069  0.27144422  0.25065619    -0.02800
Br281      Br  0.91219967  0.26713856  0.29474423    -0.02500
H282        H  0.88461873  0.21007698  0.23289553     0.09700
H283        H  0.88479080  0.34511747  0.18729688     0.07700
Br284      Br  0.92324083  0.28232298  0.13987444    -0.02900
C285        C  0.72469130  0.24350807  0.20037760    -0.09500
C286        C  0.69616348  0.23311537  0.22721609     0.06700
C287        C  0.66349197  0.26225850  0.22579857    -0.03300
C288        C  0.66641898  0.29780086  0.19819446    -0.07700
C289        C  0.70493238  0.30878875  0.18237951     0.05800
C290        C  0.73325902  0.28279766  0.19690485    -0.02800
Br291      Br  0.78545710  0.29203409  0.20112622    -0.02500
H292        H  0.75017219  0.22666024  0.19768270     0.09700
H293        H  0.64082231  0.31667594  0.19234988     0.07700
Br294      Br  0.61825861  0.25746234  0.26038836    -0.02900
C295        C  0.73042291  0.28144283  0.28971851    -0.09500
C296        C  0.74314169  0.24059867  0.28635583     0.06700
C297        C  0.78167513  0.23529896  0.30327065    -0.03300
C298        C  0.80943673  0.26775010  0.30226114    -0.07700
C299        C  0.79952126  0.30770147  0.28894858     0.05800
C300        C  0.75767720  0.31411839  0.29386317    -0.02800
Br301      Br  0.73772245  0.35459833  0.33002996    -0.02500
H302        H  0.69911190  0.28799880  0.29073272     0.09700
H303        H  0.83755891  0.26253971  0.31651952     0.07700
Br304      Br  0.79108027  0.19635740  0.34606303    -0.02900
C305        C  0.73870433  0.15645154  0.20182457    -0.09500
C306        C  0.74369048  0.17111733  0.24269037     0.06700
C307        C  0.78372728  0.16559533  0.25358243    -0.03300
C308        C  0.81377038  0.17604390  0.22518357    -0.07700
C309        C  0.80512133  0.18363855  0.18351289     0.05800
C310        C  0.77036486  0.16080709  0.17268943    -0.02800
Br311      Br  0.76683591  0.13045959  0.12337690    -0.02500
H312        H  0.71037306  0.14690011  0.19051017     0.09700
H313        H  0.84297045  0.16519173  0.23241557     0.07700
Br314      Br  0.79521019  0.11798335  0.28593933    -0.02900
C315        C  0.88075952  0.15780643  0.06313089    -0.09500
C316        C  0.91325704  0.13947836  0.08253800     0.06700
C317        C  0.91729678  0.14505451  0.12494397    -0.03300
C318        C  0.88974758  0.16864503  0.14595708    -0.07700
C319        C  0.85754193  0.18840872  0.12675198     0.05800
C320        C  0.85268703  0.18089695  0.08403845    -0.02800
Br321      Br  0.80814096  0.19471306  0.04962946    -0.02500
H322        H  0.87630895  0.15307427  0.03087831     0.09700
H323        H  0.89372778  0.17111640  0.17833169     0.07700
Br324      Br  0.95763571  0.12063343  0.15829466    -0.02900
C325        C  0.92320303  0.88471659  0.82145405    -0.09500
C326        C  0.90205523  0.91327177  0.84376178     0.06700
C327        C  0.86041919  0.91306510  0.84105153    -0.03300
C328        C  0.84132080  0.88542673  0.81549388    -0.07700
C329        C  0.86216834  0.85847514  0.79010750     0.05800
C330        C  0.90431783  0.85698784  0.79565059    -0.02800
Br331      Br  0.94066468  0.81811630  0.77364510    -0.02500
H332        H  0.95518991  0.88366010  0.82456272     0.09700
H333        H  0.80943839  0.88563221  0.81532495     0.07700
Br334      Br  0.82737934  0.95202116  0.86770526    -0.02900
C335        C  0.79513132  0.86899379  0.65788941    -0.09500
C336        C  0.75477592  0.86384200  0.66902020     0.06700
C337        C  0.74721274  0.88481583  0.70582450    -0.03300
C338        C  0.77741094  0.88620982  0.73639597    -0.07700
C339        C  0.81573325  0.86924740  0.72840870     0.05800
C340        C  0.82499010  0.87580102  0.68733072    -0.02800
Br341      Br  0.85705746  0.92299453  0.67614832    -0.02500
H342        H  0.80172399  0.87872064  0.62745032     0.09700
H343        H  0.76862092  0.89514592  0.76644150     0.07700
Br344      Br  0.70639894  0.92541646  0.70784382    -0.02900
C345        C  0.75349515  0.73059285  0.62001277    -0.09500
C346        C  0.79547172  0.73330354  0.62569926     0.06700
C347        C  0.81025963  0.76782474  0.60452453    -0.03300
C348        C  0.78744231  0.80408578  0.60408669    -0.07700
C349        C  0.74648275  0.80364946  0.61554894     0.05800
C350        C  0.73134806  0.76479127  0.60707441    -0.02800
Br351      Br  0.70584288  0.75835673  0.55527777    -0.02500
H352        H  0.73910175  0.70205908  0.61502889     0.09700
H353        H  0.80065048  0.82964279  0.58887472     0.07700
Br354      Br  0.85110355  0.76203486  0.56433092    -0.02900
C355        C  0.86678137  0.77131571  0.66693174    -0.09500
C356        C  0.84995912  0.73485057  0.68227916     0.06700
C357        C  0.86251906  0.72856857  0.72337327    -0.03300
C358        C  0.86542523  0.76224866  0.74923345    -0.07700
C359        C  0.86158110  0.80232239  0.73344145     0.05800
C360        C  0.87285156  0.80509811  0.69208106    -0.02800
Br361      Br  0.91343922  0.84211487  0.67443010    -0.02500
H362        H  0.87874600  0.77254729  0.63692540     0.09700
H363        H  0.87175933  0.75720690  0.78107656     0.07700
Br364      Br  0.89484736  0.68313956  0.73962817    -0.02900
C365        C  0.89289497  0.67806655  0.63472639    -0.09500
C366        C  0.85105423  0.67723585  0.62843502     0.06700
C367        C  0.83751186  0.64999113  0.59753757    -0.03300
C368        C  0.86432021  0.62563464  0.57595220    -0.07700
C369        C  0.90499237  0.62702526  0.58348483     0.05800
C370        C  0.91915538  0.65333455  0.61334677    -0.02800
Br371      Br  0.97468233  0.65689083  0.62586226    -0.02500
H372        H  0.90669558  0.69812633  0.65617565     0.09700
H373        H  0.85331206  0.60577751  0.55232769     0.07700
Br374      Br  0.78421105  0.64467555  0.57860234    -0.02900
C375        C  0.67209616  0.74130974  0.69893701    -0.09500
C376        C  0.67853461  0.75064230  0.74022675     0.06700
C377        C  0.66842834  0.79256559  0.74469035    -0.03300
C378        C  0.68332463  0.82130867  0.71580026    -0.07700
C379        C  0.69712776  0.80827425  0.67721790     0.05800
C380        C  0.67741637  0.77106043  0.66784395    -0.02800
Br381      Br  0.63792116  0.77008836  0.62563755    -0.02500
H382        H  0.65089299  0.71772291  0.69280112     0.09700
H383        H  0.68013157  0.85267307  0.72286830     0.07700
Br384      Br  0.62972420  0.81092709  0.78238129    -0.02900
C385        C  0.77740691  0.68785885  0.75340522    -0.09500
C386        C  0.73837349  0.69822042  0.74114682     0.06700
C387        C  0.72688586  0.67603252  0.70540008    -0.03300
C388        C  0.75638383  0.66605208  0.67673941    -0.07700
C389        C  0.79635768  0.67607180  0.68395186     0.05800
C390        C  0.80390369  0.67047204  0.72566354    -0.02800
Br391      Br  0.82124547  0.61704340  0.74195843    -0.02500
H392        H  0.78444112  0.68476169  0.78498516     0.09700
H393        H  0.74824233  0.64818659  0.65081960     0.07700
Br394      Br  0.67833594  0.64529234  0.69956320    -0.02900
C395        C  0.73674299  0.79737420  0.78048619    -0.09500
C396        C  0.73810305  0.75753349  0.79291009     0.06700
C397        C  0.77320365  0.75219489  0.81799362    -0.03300
C398        C  0.80578721  0.78134553  0.81272748    -0.07700
C399        C  0.80348835  0.81053929  0.77928760     0.05800
C400        C  0.76878318  0.80682385  0.75752087    -0.02800
Br401      Br  0.77485186  0.77897187  0.70821569    -0.02500
H402        H  0.73074945  0.81895476  0.80451391     0.09700
H403        H  0.83188247  0.77954823  0.83184712     0.07700
Br404      Br  0.77563330  0.71195875  0.86060886    -0.02900
C405        C  0.86309983  0.85373618  0.09504212    -0.09500
C406        C  0.84900135  0.87469103  0.12951263     0.06700
C407        C  0.86144394  0.91621777  0.13382331    -0.03300
C408        C  0.88698660  0.93399648  0.10527913    -0.07700
C409        C  0.90201600  0.91195533  0.07287409     0.05800
C410        C  0.88971733  0.87163015  0.06753146    -0.02800
Br411      Br  0.91113479  0.83880517  0.02514223    -0.02500
H412        H  0.85485036  0.82233934  0.09019117     0.09700
H413        H  0.89638283  0.96533312  0.10911786     0.07700
Br414      Br  0.84850675  0.95261589  0.17719759    -0.02900
C415        C  0.78047086  0.74936343  0.14356151    -0.09500
C416        C  0.74059307  0.75361342  0.13671522     0.06700
C417        C  0.73517796  0.79159918  0.11367768    -0.03300
C418        C  0.76624508  0.82269921  0.11595150    -0.07700
C419        C  0.79804293  0.81738949  0.14502633     0.05800
C420        C  0.79486592  0.78080874  0.16558691    -0.02800
Br421      Br  0.77573227  0.78622896  0.21790386    -0.02500
H422        H  0.79761683  0.74295327  0.11646684     0.09700
H423        H  0.76542748  0.84871455  0.09577057     0.07700
Br424      Br  0.69551727  0.79910493  0.07250762    -0.02900
C425        C  0.80884435  0.68724077  0.20180931    -0.09500
C426        C  0.80637703  0.69992464  0.24313493     0.06700
C427        C  0.76945235  0.68730339  0.25930150    -0.03300
C428        C  0.73516018  0.69235412  0.23541434    -0.07700
C429        C  0.73788342  0.69567167  0.19245748     0.05800
C430        C  0.77390792  0.67780642  0.17912760    -0.02800
Br431      Br  0.77856637  0.65278146  0.12694213    -0.02500
H432        H  0.83639932  0.68267699  0.18702945     0.09700
H433        H  0.70772789  0.68561523  0.25023889     0.07700
Br434      Br  0.76663452  0.64567784  0.30057342    -0.02900
C435        C  0.88033164  0.79473544  0.25114508    -0.09500
C436        C  0.86524909  0.75612218  0.23957748     0.06700
C437        C  0.87471024  0.74925761  0.19814659    -0.03300
C438        C  0.87412630  0.78281496  0.17021024    -0.07700
C439        C  0.86348349  0.82227974  0.18439062     0.05800
C440        C  0.87907462  0.82823623  0.22362016    -0.02800
Br441      Br  0.91572929  0.87227553  0.23178229    -0.02500
H442        H  0.89583135  0.79818266  0.27957748     0.09700
H443        H  0.87554248  0.77648356  0.13809543     0.07700
Br444      Br  0.90939816  0.70518351  0.18471660    -0.02900
C445        C  0.89633148  0.63511225  0.31836340    -0.09500
C446        C  0.91727806  0.65427196  0.34934982     0.06700
C447        C  0.91468017  0.69706925  0.35184606    -0.03300
C448        C  0.88931828  0.71868645  0.32545034    -0.07700
C449        C  0.86636532  0.69963400  0.29487588     0.05800
C450        C  0.87224357  0.65649872  0.29083320    -0.02800
Br451      Br  0.85408458  0.62112079  0.24847571    -0.02500
H452        H  0.89926265  0.60244518  0.31504188     0.09700
H453        H  0.88786533  0.75111192  0.32929855     0.07700
Br454      Br  0.94691587  0.72914663  0.38759154    -0.02900
C455        C  0.68445487  0.82545864  0.20539254    -0.09500
C456        C  0.69273952  0.81617105  0.24691593     0.06700
C457        C  0.67332944  0.77951577  0.25854859    -0.03300
C458        C  0.67053963  0.74764620  0.22997944    -0.07700
C459        C  0.68299882  0.75403202  0.18924889     0.05800
C460        C  0.67596383  0.79450296  0.17742514    -0.02800
Br461      Br  0.62949506  0.80388545  0.14502821    -0.02500
H462        H  0.67340574  0.85498059  0.19721677     0.09700
H463        H  0.65582416  0.72006456  0.23909158     0.07700
Br464      Br  0.63992168  0.77664956  0.30569531    -0.02900
C465        C  0.73462670  0.89243962  0.21230060    -0.09500
C466        C  0.74290686  0.87856246  0.25230747     0.06700
C467        C  0.78143700  0.89071153  0.26225996    -0.03300
C468        C  0.81159244  0.88118425  0.23473514    -0.07700
C469        C  0.80237949  0.87491443  0.19317695     0.05800
C470        C  0.76435110  0.89068197  0.18217334    -0.02800
Br471      Br  0.75459444  0.91970264  0.13220874    -0.02500
H472        H  0.70694585  0.90721839  0.20508288     0.09700
H473        H  0.84099526  0.88901841  0.24370203     0.07700
Br474      Br  0.78686582  0.94321038  0.28695871    -0.02900
C475        C  0.74335317  0.77236457  0.31013355    -0.09500
C476        C  0.74996691  0.81449872  0.30160343     0.06700
C477        C  0.78930779  0.82553684  0.31362077    -0.03300
C478        C  0.82054888  0.79728174  0.30906637    -0.07700
C479        C  0.81263186  0.75601433  0.29937330     0.05800
C480        C  0.77551398  0.74533118  0.31601519    -0.02800
Br481      Br  0.77602027  0.71747060  0.36757402    -0.02500
H482        H  0.71498399  0.76184407  0.32006826     0.09700
H483        H  0.84923727  0.80634239  0.31998982     0.08100
Br484      Br  0.79920636  0.86754972  0.35262928    -0.02900
C485        C  0.17828948  0.89325316  0.78829222    -0.09500
C486        C  0.18243494  0.85143368  0.79923007     0.06700
C487        C  0.16018474  0.83827574  0.83413041    -0.03300
C488        C  0.13461903  0.86497428  0.85416610    -0.07700
C489        C  0.12946770  0.90500391  0.84100902     0.05800
C490        C  0.15186967  0.91931141  0.80804136    -0.02800
Br491      Br  0.14832145  0.97486640  0.78965685    -0.02500
H492        H  0.19534319  0.90684217  0.76413019     0.09700
H493        H  0.11854013  0.85437545  0.88075680     0.07700
Br494      Br  0.16312732  0.78641570  0.86085205    -0.02900
C495        C  0.17607455  0.77154703  0.67937281    -0.09500
C496        C  0.18564853  0.73090019  0.69114240     0.06700
C497        C  0.17040225  0.72059582  0.72989682    -0.03300
C498        C  0.16902055  0.75141234  0.75978300    -0.07700
C499        C  0.17780122  0.79234192  0.74910689     0.05800
C500        C  0.16506164  0.79977395  0.70906959    -0.02800
Br501      Br  0.11286752  0.82191778  0.70264902    -0.02500
H502        H  0.17562048  0.78158316  0.64811000     0.09700
H503        H  0.15501975  0.74470889  0.78848510     0.07700
Br504      Br  0.12975316  0.67987776  0.73280886    -0.02900
C505        C  0.16799288  0.61305829  0.60482718    -0.09500
C506        C  0.14015009  0.63384782  0.58141531     0.06700
C507        C  0.13895053  0.67651248  0.58292626    -0.03300
C508        C  0.16364355  0.69704772  0.60990285    -0.07700
C509        C  0.19163682  0.67689101  0.63501391     0.05800
C510        C  0.19412457  0.63325162  0.63065809    -0.02800
Br511      Br  0.23046414  0.59464129  0.65488030    -0.02500
H512        H  0.16967059  0.58018119  0.60259771     0.09700
H513        H  0.15955713  0.72935252  0.61160590     0.07700
Br514      Br  0.10304093  0.70915607  0.55097493    -0.02900
C515        C  0.30919894  0.75589700  0.64360341    -0.09500
C516        C  0.30376566  0.79373020  0.62722178     0.06700
C517        C  0.26860664  0.79381182  0.60162929    -0.03300
C518        C  0.23914293  0.76155490  0.60827950    -0.07700
C519        C  0.24389659  0.73469337  0.64334368     0.05800
C520        C  0.27702340  0.74526880  0.66547785    -0.02800
Br521      Br  0.26922567  0.76921990  0.71576630    -0.02500
H522        H  0.31803368  0.73329884  0.62153690     0.09700
H523        H  0.21362381  0.75991178  0.58856325     0.07700
Br524      Br  0.26083397  0.83359346  0.55933927    -0.02900
C525        C  0.25303749  0.85391053  0.66678345    -0.09500
C526        C  0.29362600  0.85278275  0.67731799     0.06700
C527        C  0.29998778  0.87078472  0.71622160    -0.03300
C528        C  0.27075390  0.86679140  0.74681933    -0.07700
C529        C  0.23347142  0.84882334  0.73869936     0.05800
C530        C  0.22340031  0.85595683  0.69693263    -0.02800
Br531      Br  0.18052379  0.89154824  0.68213768    -0.02500
H532        H  0.24431804  0.85795713  0.63563277     0.09700
H533        H  0.27605888  0.88137286  0.77522125     0.07700
Br534      Br  0.33668858  0.91482629  0.72410503    -0.02900
C535        C  0.27149654  0.67732513  0.76111757    -0.09500
C536        C  0.30710369  0.69462557  0.74598086     0.06700
C537        C  0.31514084  0.67672343  0.70707489    -0.03300
C538        C  0.28281862  0.66641627  0.68122155    -0.07700
C539        C  0.24337705  0.67536231  0.69372166     0.05800
C540        C  0.23903588  0.66881796  0.73578921    -0.02800
Br541      Br  0.20668955  0.62462222  0.75497975    -0.02500
H542        H  0.27115081  0.66452499  0.79120438     0.09700
H543        H  0.28894112  0.66034693  0.64955413     0.07700
Br544      Br  0.36370074  0.65179955  0.69151791    -0.02900
C545        C  0.30973806  0.79021507  0.81627412    -0.09500
C546        C  0.30839330  0.74805453  0.80656110     0.06700
C547        C  0.27217455  0.73285402  0.82065143    -0.03300
C548        C  0.23743264  0.75460209  0.81097103    -0.07700
C549        C  0.23919196  0.79701954  0.80038619     0.05800
C550        C  0.27464035  0.81417659  0.81605183    -0.02800
Br551      Br  0.27245634  0.86018664  0.85160921    -0.02500
H552        H  0.33541562  0.80246555  0.83136397     0.09700
H553        H  0.21066480  0.73881758  0.81804133     0.07700
Br554      Br  0.27148938  0.69407537  0.86483791    -0.02900
C555        C  0.36134945  0.79849581  0.75040331    -0.09500
C556        C  0.35937409  0.75544861  0.74496292     0.06700
C557        C  0.38083661  0.74464702  0.70964455    -0.03300
C558        C  0.37967148  0.77166351  0.67521461    -0.07700
C559        C  0.36105236  0.81062663  0.67872206     0.05800
C560        C  0.36878121  0.82502464  0.71754573    -0.02800
Br561      Br  0.41636535  0.85682638  0.72305948    -0.02500
H562        H  0.36868100  0.81105017  0.77916893     0.09700
H563        H  0.39060873  0.76092686  0.64658492     0.07700
Br564      Br  0.43031224  0.71683045  0.71765773    -0.02900
C565        C  0.91284665  0.18462348  0.83600502    -0.09500
C566        C  0.91127415  0.14262852  0.84273996     0.06700
C567        C  0.88386513  0.11932504  0.82100200    -0.03300
C568        C  0.85575629  0.13840317  0.79623709    -0.07700
C569        C  0.85442737  0.18139331  0.79091805     0.05800
C570        C  0.88563182  0.20425271  0.80997367    -0.02800
Br571      Br  0.89474642  0.26234730  0.80399297    -0.02500
H572        H  0.93516076  0.20244963  0.85160349     0.09700
H573        H  0.83438474  0.11836645  0.78240375     0.07700
Br574      Br  0.88335102  0.06081479  0.82441811    -0.02900
C575        C  0.72413206  0.15489151  0.72107278    -0.09500
C576        C  0.73628416  0.16982577  0.68177335     0.06700
C577        C  0.77506697  0.15457215  0.67360608    -0.03300
C578        C  0.80353196  0.15246093  0.70615072    -0.07700
C579        C  0.79244822  0.16547652  0.74598582     0.05800
C580        C  0.75284736  0.15214670  0.75367613    -0.02800
Br581      Br  0.73997095  0.12291807  0.80268332    -0.02500
H582        H  0.69316500  0.15252691  0.72869319     0.09700
H583        H  0.83446528  0.14826279  0.69870160     0.07700
Br584      Br  0.78526269  0.12372870  0.62558666    -0.02900
C585        C  0.75320613  0.30609293  0.59187561    -0.09500
C586        C  0.79487486  0.30548464  0.60375417     0.06700
C587        C  0.80701663  0.26370917  0.59783807    -0.03300
C588        C  0.78182802  0.23021166  0.61172838    -0.07700
C589        C  0.74097730  0.23588483  0.62332374     0.05800
C590        C  0.72706847  0.27081862  0.59947363    -0.02800
Br591      Br  0.67569734  0.27194066  0.57505715    -0.02500
H592        H  0.73895541  0.33423776  0.58346752     0.09700
H593        H  0.79677484  0.20225459  0.61745348     0.07700
Br594      Br  0.86125830  0.25220981  0.58541538    -0.02900
C595        C  0.87145422  0.28152022  0.68477347    -0.09500
C596        C  0.83476037  0.29878091  0.66927397     0.06700
C597        C  0.80274066  0.27558688  0.67894627    -0.03300
C598        C  0.80633869  0.23756950  0.69700630    -0.07700
C599        C  0.83412931  0.22865005  0.72796088     0.05800
C600        C  0.87119334  0.24687472  0.71405324    -0.02800
Br601      Br  0.91964835  0.21656788  0.71826234    -0.02500
H602        H  0.89962516  0.29228603  0.67352562     0.09700
H603        H  0.78030428  0.22331134  0.69526183     0.07700
Br604      Br  0.75110137  0.30187208  0.67559797    -0.02900
C605        C  0.88952920  0.36664650  0.63498768    -0.09500
C606        C  0.85278295  0.35810068  0.61619077     0.06700
C607        C  0.84659913  0.37510348  0.57642351    -0.03300
C608        C  0.87769213  0.39335887  0.55526919    -0.07700
C609        C  0.91402328  0.40012761  0.57386025     0.05800
C610        C  0.91970324  0.38771567  0.61444390    -0.02800
Br611      Br  0.96828218  0.39830517  0.64296503    -0.02500
H612        H  0.89502165  0.35825396  0.66615715     0.09700
H613        H  0.87257660  0.40519429  0.52478122     0.07700
Br614      Br  0.79670538  0.38235269  0.54933736    -0.02900
C615        C  0.72264054  0.24068010  0.73338055    -0.09500
C616        C  0.69870790  0.23918064  0.69770431     0.06700
C617        C  0.67134242  0.27404794  0.69949195    -0.03300
C618        C  0.67597095  0.30656241  0.73012501    -0.07700
C619        C  0.70954958  0.30761295  0.75777296     0.05800
C620        C  0.73480037  0.27645905  0.75172570    -0.02800
Br621      Br  0.79116994  0.29246216  0.75751302    -0.02500
H622        H  0.74361299  0.22022869  0.74103818     0.09700
H623        H  0.65588659  0.33214515  0.72894988     0.07700
Br624      Br  0.62901606  0.28230896  0.66172341    -0.02900
C625        C  0.78735246  0.29848520  0.84114118    -0.09500
C626        C  0.74701863  0.30495988  0.82658586     0.06700
C627        C  0.72963373  0.26408931  0.83084339    -0.03300
C628        C  0.75120273  0.22715708  0.81818993    -0.07700
C629        C  0.79324869  0.22667444  0.80902088     0.05800
C630        C  0.80863581  0.25912357  0.83569833    -0.02800
Br631      Br  0.83732221  0.24271226  0.88371316    -0.02500
H632        H  0.80186507  0.32277068  0.85738873     0.09700
H633        H  0.73278705  0.20186234  0.81069533     0.07700
Br634      Br  0.67390814  0.25841444  0.83997596    -0.02900
C635        C  0.74009919  0.38347749  0.71747297    -0.09500
C636        C  0.75716496  0.36958922  0.75556171     0.06700
C637        C  0.80023405  0.37615714  0.75238080    -0.03300
C638        C  0.82061974  0.37250046  0.71352092    -0.07700
C639        C  0.80139145  0.36860472  0.67466347     0.05800
C640        C  0.76192045  0.38595054  0.67876588    -0.02800
Br641      Br  0.73251246  0.40319879  0.63209196    -0.02500
H642        H  0.70834303  0.38777526  0.71627191     0.09700
H643        H  0.85206602  0.36699868  0.71502931     0.07700
Br644      Br  0.83703971  0.37354725  0.79727298    -0.02900
C645        C  0.68758264  0.19115181  0.33370469    -0.09500
C646        C  0.68488036  0.18673033  0.29097102     0.06700
C647        C  0.65351373  0.16135555  0.27631300    -0.03300
C648        C  0.62868627  0.14022634  0.30351353    -0.07700
C649        C  0.63343948  0.14356835  0.34546912     0.05800
C650        C  0.66293325  0.16951948  0.36052797    -0.02800
Br651      Br  0.67146312  0.17547361  0.41780037    -0.02500
H652        H  0.70921867  0.21102801  0.34724011     0.09700
H653        H  0.60538511  0.12081644  0.29174069     0.07700
Br654      Br  0.63863505  0.15597816  0.22030247    -0.02900
C655        C  0.67501115  0.90851149  0.56281940    -0.09500
C656        C  0.63619322  0.91223450  0.57694572     0.06700
C657        C  0.62619399  0.89354070  0.61374223    -0.03300
C658        C  0.65407920  0.86969113  0.63450943    -0.07700
C659        C  0.69357618  0.86348602  0.62026992     0.05800
C660        C  0.70358131  0.88538768  0.58390191    -0.02800
Br661      Br  0.75457755  0.88794674  0.55923307    -0.02500
H662        H  0.68329959  0.92396165  0.53480664     0.09700
H663        H  0.64336635  0.85672979  0.66241641     0.07700
Br664      Br  0.57573133  0.90249923  0.63890503    -0.02900
C665        C  0.66197138  0.89307065  0.28546083    -0.09500
C666        C  0.68900324  0.86630947  0.30526138     0.06700
C667        C  0.68534133  0.86278528  0.34868204    -0.03300
C668        C  0.65801042  0.88706408  0.36942290    -0.07700
C669        C  0.63313163  0.91428500  0.34892610     0.05800
C670        C  0.63476942  0.91678705  0.30658487    -0.02800
Br671      Br  0.60038337  0.95239192  0.27625855    -0.02500
H672        H  0.66161851  0.89584616  0.25285628     0.09700
H673        H  0.65577599  0.88442758  0.40222481     0.07700
Br674      Br  0.71162029  0.82486261  0.38452343    -0.02900
C675        C  0.34357620  0.90040649  0.62139379    -0.09500
C676        C  0.34679936  0.85770110  0.61834424     0.06700
C677        C  0.37313283  0.84285884  0.58797902    -0.03300
C678        C  0.39788939  0.86969356  0.56640743    -0.07700
C679        C  0.39690224  0.91171340  0.57268911     0.05800
C680        C  0.36878937  0.92706092  0.60017596    -0.02800
Br681      Br  0.36552052  0.98365706  0.61382780    -0.02500
H682        H  0.32225466  0.91391399  0.64138217     0.09700
H683        H  0.41774551  0.85751214  0.54378891     0.07700
Br684      Br  0.37551616  0.78752474  0.56972333    -0.02900
C685        C  0.61702257  0.15524314  0.62044258    -0.09500
C686        C  0.63057599  0.14044203  0.58313126     0.06700
C687        C  0.66968974  0.14850155  0.57156776    -0.03300
C688        C  0.69438444  0.17028333  0.59705744    -0.07700
C689        C  0.68160933  0.18719457  0.63426464     0.05800
C690        C  0.64225058  0.17715850  0.64674331    -0.02800
Br691      Br  0.62138767  0.18551754  0.70022331    -0.02500
H692        H  0.58723288  0.14770027  0.63020500     0.09700
H693        H  0.72458225  0.17362283  0.58688502     0.07700
Br694      Br  0.69182556  0.13188116  0.52059431    -0.02900
C695        C  0.36343986  0.90999485  0.28495657    -0.09500
C696        C  0.36644351  0.86686454  0.28758043     0.06700
C697        C  0.39757913  0.85125849  0.31294514    -0.03300
C698        C  0.42037307  0.87764466  0.33664845    -0.07700
C699        C  0.41439914  0.91973265  0.33591209     0.05800
C700        C  0.38715006  0.93598584  0.30785550    -0.02800
Br701      Br  0.38142553  0.99328493  0.29732088    -0.02500
H702        H  0.34177676  0.92496821  0.26586702     0.09700
H703        H  0.44252459  0.86476336  0.35693447     0.07700
Br704      Br  0.41407119  0.79567813  0.31882489    -0.02900
C705        C  0.23868838  0.80069846  0.31432895    -0.09500
C706        C  0.24664720  0.75815208  0.30947041     0.06700
C707        C  0.28514363  0.74940298  0.32400874    -0.03300
C708        C  0.31626583  0.77676582  0.31444214    -0.07700
C709        C  0.30838193  0.81795749  0.30252574     0.05800
C710        C  0.26995170  0.83000918  0.31429439    -0.02800
Br711      Br  0.26364280  0.87886648  0.34498705    -0.02500
H712        H  0.20965241  0.81105572  0.32167370     0.09700
H713        H  0.34505995  0.76355002  0.31245307     0.07700
Br714      Br  0.29490747  0.70529434  0.36195351    -0.02900
C715        C  0.16849541  0.67094642  0.29242400    -0.09500
C716        C  0.19327190  0.70003586  0.31090966     0.06700
C717        C  0.18775511  0.70436095  0.35413651    -0.03300
C718        C  0.16332979  0.67705830  0.37581047    -0.07700
C719        C  0.14108722  0.64690129  0.35651595     0.05800
C720        C  0.14360416  0.64442512  0.31395275    -0.02800
Br721      Br  0.11191360  0.60803491  0.28182704    -0.02500
H722        H  0.16619862  0.66995122  0.26021771     0.09700
H723        H  0.16042269  0.68063643  0.40835355     0.07700
Br724      Br  0.20393997  0.74884780  0.38820412    -0.02900
C725        C  0.18038997  0.81687720  0.21804962    -0.09500
C726        C  0.19453400  0.80241933  0.17983876     0.06700
C727        C  0.18308558  0.76100099  0.17579555    -0.03300
C728        C  0.18400910  0.73487941  0.21011515    -0.07700
C729        C  0.19147337  0.74946940  0.24987675     0.05800
C730        C  0.17756326  0.79017615  0.25270896    -0.02800
Br731      Br  0.13841830  0.80242161  0.29290321    -0.02500
H732        H  0.16915896  0.84711427  0.22075979     0.09700
H733        H  0.17443068  0.70398735  0.20558277     0.07700
Br734      Br  0.13963257  0.74742254  0.14069647    -0.02900
C735        C  0.29207274  0.86396846  0.16344238    -0.09500
C736        C  0.25064534  0.85847686  0.17125583     0.06700
C737        C  0.24010274  0.87989727  0.20701022    -0.03300
C738        C  0.26714304  0.88116960  0.24045836    -0.07700
C739        C  0.30728977  0.86885891  0.23589415     0.05800
C740        C  0.31944522  0.87343731  0.19476182    -0.02800
Br741      Br  0.37373842  0.88345739  0.18037187    -0.02500
H742        H  0.30523588  0.86048592  0.13440156     0.09700
H743        H  0.25764591  0.89562353  0.26767404     0.07700
Br744      Br  0.19789950  0.91905700  0.20563583    -0.02900
C745        C  0.14877899  0.85302681  0.12586105    -0.09500
C746        C  0.19056662  0.85753761  0.12166749     0.06700
C747        C  0.20333097  0.88845504  0.09357474    -0.03300
C748        C  0.17598867  0.90906795  0.06894953    -0.07700
C749        C  0.13524219  0.90249641  0.07223669     0.05800
C750        C  0.12160338  0.87503173  0.10198694    -0.02800
Br751      Br  0.06615141  0.86511960  0.11060942    -0.02500
H752        H  0.13593154  0.83247009  0.14782119     0.09700
H753        H  0.18687257  0.93211646  0.04795143     0.07700
Br754      Br  0.25552591  0.91106951  0.08857410    -0.02900
C755        C  0.32219769  0.78172560  0.17804200    -0.09500
C756        C  0.35067724  0.75512608  0.16797249     0.06700
C757        C  0.38690541  0.76185871  0.19171968    -0.03300
C758        C  0.38600580  0.79218714  0.22398643    -0.07700
C759        C  0.34812302  0.80553577  0.23866259     0.05800
C760        C  0.31764857  0.78822198  0.21731457    -0.02800
Br761      Br  0.26630596  0.78733319  0.22892070    -0.02500
H762        H  0.29541776  0.78330153  0.16209972     0.09700
H763        H  0.41335146  0.80386127  0.23636135     0.07700
Br764      Br  0.43700530  0.73627748  0.18189755    -0.02900
C765        C  0.26392212  0.68384744  0.18272554    -0.09500
C766        C  0.30393296  0.69736644  0.18439429     0.06700
C767        C  0.31936464  0.69350549  0.22459363    -0.03300
C768        C  0.29370649  0.69545044  0.25877243    -0.07700
C769        C  0.25145686  0.69687350  0.25535860     0.05800
C770        C  0.24116667  0.67709090  0.21839059    -0.02800
Br771      Br  0.21480212  0.62516215  0.21894889    -0.02500
H772        H  0.25315581  0.66938452  0.15577540     0.09700
H773        H  0.30777689  0.69006770  0.28723357     0.07700
Br774      Br  0.37238326  0.67552619  0.23488764    -0.02900
C775        C  0.26018819  0.72717290  0.10777159    -0.09500
C776        C  0.30102297  0.73661126  0.11034971     0.06700
C777        C  0.30784217  0.77620401  0.09141102    -0.03300
C778        C  0.27778600  0.80693253  0.09331413    -0.07700
C779        C  0.24183814  0.79910682  0.11429827     0.05800
C780        C  0.23081337  0.75827839  0.10621260    -0.02800
Br781      Br  0.19507639  0.75157904  0.06117727    -0.02500
H782        H  0.25230722  0.69696361  0.09774055     0.09700
H783        H  0.28391716  0.83628003  0.08018612     0.07700
Br784      Br  0.35631615  0.79302323  0.06638312    -0.02900
C785        C  0.66447100  0.39927125  0.06438904    -0.09500
C786        C  0.63676188  0.42023322  0.08706480     0.06700
C787        C  0.63539151  0.41413232  0.12920539    -0.03300
C788        C  0.66216379  0.38720703  0.14809727    -0.07700
C789        C  0.69100368  0.36559470  0.12580864     0.05800
C790        C  0.69164101  0.37274313  0.08250702    -0.02800
Br791      Br  0.72817541  0.35241532  0.04264811    -0.02500
H792        H  0.66538530  0.40440485  0.03175757     0.09700
H793        H  0.66070399  0.38401889  0.18071241     0.07700
Br794      Br  0.59825952  0.44300351  0.16201638    -0.02900
C795        C  0.63949031  0.68906969  0.85527132    -0.09500
C796        C  0.63726182  0.64728769  0.84791686     0.06700
C797        C  0.66268670  0.63037848  0.81924219    -0.03300
C798        C  0.68826951  0.65553654  0.79710895    -0.07700
C799        C  0.68790885  0.69861310  0.80048009     0.05800
C800        C  0.66543404  0.71440180  0.83344108    -0.02800
Br801      Br  0.67458248  0.76597666  0.85889142    -0.02500
H802        H  0.62258695  0.70177788  0.88001784     0.09700
H803        H  0.70822389  0.64013651  0.77708180     0.07700
Br804      Br  0.66217625  0.57325184  0.80717184    -0.02900
C805        C  0.63291602  0.64597118  0.12227703    -0.09500
C806        C  0.63619910  0.65125542  0.08041457     0.06700
C807        C  0.66522537  0.67779839  0.06519389    -0.03300
C808        C  0.68965286  0.69942389  0.09197255    -0.07700
C809        C  0.68517389  0.69711925  0.13490012     0.05800
C810        C  0.65724227  0.66740374  0.14937438    -0.02800
Br811      Br  0.65260191  0.64769557  0.20400065    -0.02500
H812        H  0.61193058  0.62374826  0.13401538     0.09700
H813        H  0.71291724  0.71717557  0.07813572     0.07700
Br814      Br  0.67275218  0.68533576  0.00777728    -0.02900
C815        C  0.36026584  0.65190040  0.79594592    -0.09500
C816        C  0.36437441  0.69506346  0.79809493     0.06700
C817        C  0.39472149  0.70954772  0.82449066    -0.03300
C818        C  0.41800224  0.68229537  0.84705958    -0.07700
C819        C  0.41268742  0.64014099  0.84471307     0.05800
C820        C  0.38390306  0.62497132  0.81805369    -0.02800
Br821      Br  0.37597117  0.56797390  0.80776187    -0.02500
H822        H  0.33851646  0.63719714  0.77718126     0.09700
H823        H  0.44031940  0.69447854  0.86737311     0.07700
Br824      Br  0.40846501  0.76519764  0.83309044    -0.02900
C825        C  0.68421594  0.42636113  0.85225551    -0.09500
C826        C  0.64367054  0.41788637  0.85167678     0.06700
C827        C  0.63052946  0.38364594  0.82999104    -0.03300
C828        C  0.65803317  0.35855490  0.81036418    -0.07700
C829        C  0.69923431  0.36715560  0.81026156     0.05800
C830        C  0.71158527  0.40158961  0.83287592    -0.02800
Br831      Br  0.76498121  0.41729223  0.84274057    -0.02500
H832        H  0.69539167  0.45178194  0.86955075     0.09700
H833        H  0.64639399  0.33150419  0.79658655     0.07700
Br834      Br  0.57538807  0.36999281  0.82496105    -0.02900
C835        C  0.38193513  0.62228344  0.10274568    -0.09500
C836        C  0.41209539  0.64099393  0.08017324     0.06700
C837        C  0.41642488  0.68349768  0.08211989    -0.03300
C838        C  0.39020892  0.70586708  0.10538377    -0.07700
C839        C  0.35882158  0.68813745  0.12747051     0.05800
C840        C  0.35513967  0.64482012  0.12570015    -0.02800
Br841      Br  0.31523020  0.61137076  0.15074854    -0.02500
H842        H  0.37853635  0.58950028  0.10194827     0.09700
H843        H  0.39559577  0.73797404  0.10694575     0.07700
Br844      Br  0.45571481  0.71448946  0.05276709    -0.02900
C845        C  0.43160433  0.37348460  0.83259764    -0.09500
C846        C  0.41604419  0.40940144  0.84861814     0.06700
C847        C  0.37589270  0.41847971  0.84057149    -0.03300
C848        C  0.35300555  0.39220850  0.81700968    -0.07700
C849        C  0.36816181  0.35618871  0.80007574     0.05800
C850        C  0.40846720  0.34636400  0.80990587    -0.02800
Br851      Br  0.43536717  0.29569356  0.80013601    -0.02500
H852        H  0.46204617  0.36533069  0.83901806     0.09700
H853        H  0.32234866  0.40009753  0.81281753     0.07700
Br854      Br  0.34854400  0.46494370  0.86166340    -0.02900
C855        C  0.27632808  0.37458407  0.74939009    -0.09500
C856        C  0.31447341  0.35739545  0.74388651     0.06700
C857        C  0.32837546  0.36613745  0.70468632    -0.03300
C858        C  0.30136540  0.36316480  0.67204840    -0.07700
C859        C  0.25962409  0.36098385  0.67859696     0.05800
C860        C  0.24994071  0.37904832  0.71629862    -0.02800
Br861      Br  0.21440503  0.42430818  0.71936603    -0.02500
H862        H  0.26853019  0.38946176  0.77710424     0.09700
H863        H  0.31235858  0.37244704  0.64298495     0.07700
Br864      Br  0.36558835  0.41015412  0.70007749    -0.02900
C865        C  0.18093043  0.42797177  0.58836754    -0.09500
C866        C  0.14767227  0.40885494  0.57148761     0.06700
C867        C  0.14168127  0.36735305  0.57972897    -0.03300
C868        C  0.16803014  0.34619123  0.60491469    -0.07700
C869        C  0.20149590  0.36453878  0.62332626     0.05800
C870        C  0.20854489  0.40640891  0.61258786    -0.02800
Br871      Br  0.25598606  0.43700688  0.62343223    -0.02500
H872        H  0.18632345  0.45980585  0.58121238     0.09700
H873        H  0.16140646  0.31466521  0.60997755     0.07700
Br874      Br  0.09650395  0.33780607  0.55988801    -0.02900
C875        C  0.28325546  0.24022865  0.81587308    -0.09500
C876        C  0.24529812  0.25293932  0.80182737     0.06700
C877        C  0.23775455  0.29365744  0.81492085    -0.03300
C878        C  0.26948385  0.32192358  0.81574002    -0.07700
C879        C  0.30870527  0.30907343  0.80899293     0.05800
C880        C  0.31301280  0.26917910  0.82535344    -0.02800
Br881      Br  0.35952635  0.25177135  0.85397162    -0.02500
H882        H  0.28995940  0.20915520  0.82182316     0.09700
H883        H  0.26459217  0.35168792  0.82833368     0.07700
Br884      Br  0.19345841  0.30699724  0.84924804    -0.02900
C885        C  0.18320384  0.29795630  0.75237592    -0.09500
C886        C  0.18716709  0.25516873  0.74754593     0.06700
C887        C  0.17273353  0.24569910  0.70832595    -0.03300
C888        C  0.18373815  0.27071197  0.67507778    -0.07700
C889        C  0.19988806  0.31034673  0.68141932     0.05800
C890        C  0.18499431  0.32519437  0.71848941    -0.02800
Br891      Br  0.14064201  0.36157457  0.71441309    -0.02500
H892        H  0.16534266  0.30770230  0.77725650     0.09700
H893        H  0.17244092  0.26135024  0.64621358     0.07700
Br894      Br  0.12328904  0.21736986  0.70160981    -0.02900
C895        C  0.16327636  0.16997627  0.78278508    -0.09500
C896        C  0.18921862  0.19676014  0.80309190     0.06700
C897        C  0.18983051  0.19259199  0.84685116    -0.03300
C898        C  0.16355453  0.16562351  0.86661102    -0.07700
C899        C  0.13704310  0.14110314  0.84522721     0.05800
C900        C  0.13777093  0.14289557  0.80258060    -0.02800
Br901      Br  0.10843661  0.10648683  0.76831197    -0.02500
H902        H  0.16387116  0.16800082  0.75052484     0.09700
H903        H  0.16422621  0.16320298  0.89950974     0.07700
Br904      Br  0.22577542  0.21651726  0.88540424    -0.02900
C905        C  0.37639953  0.26487376  0.68235782    -0.09500
C906        C  0.34419498  0.23646374  0.68852011     0.06700
C907        C  0.32374276  0.24388529  0.72376622    -0.03300
C908        C  0.34683974  0.25567582  0.75542383    -0.07700
C909        C  0.36022748  0.29483445  0.75003216     0.05800
C910        C  0.38285597  0.29663888  0.71230434    -0.02800
Br911      Br  0.42627946  0.33312537  0.70307508    -0.02500
H912        H  0.39456541  0.26357707  0.65539510     0.09700
H913        H  0.36977102  0.23393076  0.76374553     0.07700
Br914      Br  0.27723010  0.27365575  0.71457573    -0.02900
C915        C  0.31564451  0.27598596  0.61558593    -0.09500
C916        C  0.29902721  0.23836000  0.62864520     0.06700
C917        C  0.25963731  0.23327063  0.61389193    -0.03300
C918        C  0.23565440  0.26805788  0.60942622    -0.07700
C919        C  0.25047927  0.30643517  0.62029000     0.05800
C920        C  0.29059104  0.30964358  0.60869877    -0.02800
Br921      Br  0.30572162  0.34890623  0.56786097    -0.02500
H922        H  0.34694716  0.27893169  0.60967593     0.09700
H923        H  0.20739116  0.26575471  0.59414332     0.07700
Br924      Br  0.24514957  0.18899596  0.57934448    -0.02900
C925        C  0.30348423  0.16397020  0.72421361    -0.09500
C926        C  0.29583776  0.17613240  0.68289562     0.06700
C927        C  0.25536034  0.17139869  0.67517557    -0.03300
C928        C  0.22830736  0.18528319  0.70435109    -0.07700
C929        C  0.24018075  0.19497085  0.74493951     0.05800
C930        C  0.27470352  0.17182940  0.75518967    -0.02800
Br931      Br  0.27473741  0.13566998  0.80159929    -0.02500
H932        H  0.33159658  0.15150135  0.73326719     0.09700
H933        H  0.19789601  0.17915993  0.69719373     0.07700
Br934      Br  0.23995732  0.12031921  0.65191287    -0.02900
C935        C  0.34939393  0.18182917  0.58892751    -0.09500
C936        C  0.35423258  0.18396505  0.63174440     0.06700
C937        C  0.38769501  0.16298732  0.64863141    -0.03300
C938        C  0.41304392  0.14060411  0.62350531    -0.07700
C939        C  0.40643282  0.13822447  0.58167216     0.05800
C940        C  0.37453286  0.15931086  0.56438470    -0.02800
Br941      Br  0.36454590  0.15939667  0.50679455    -0.02500
H942        H  0.32609108  0.19779745  0.57321446     0.09700
H943        H  0.43831784  0.12498025  0.63674463     0.07700
Br944      Br  0.40438266  0.16505025  0.70440692    -0.02900
C945        C  0.15289809  0.43336708  0.30224993    -0.09500
C946        C  0.13127436  0.41368286  0.33292491     0.06700
C947        C  0.13160884  0.37072365  0.33399016    -0.03300
C948        C  0.15627565  0.34918976  0.30758557    -0.07700
C949        C  0.18214092  0.36882741  0.27988888     0.05800
C950        C  0.17684899  0.41196957  0.27508501    -0.02800
Br951      Br  0.19471201  0.44588982  0.23067580    -0.02500
H952        H  0.15094857  0.46615002  0.29896795     0.09700
H953        H  0.15501393  0.31647335  0.30901721     0.07700
Br954      Br  0.09799869  0.33893525  0.36914280    -0.02900
C955        C  0.19774261  0.23778082  0.22433447    -0.09500
C956        C  0.18755265  0.23781992  0.18408929     0.06700
C957        C  0.16413088  0.27365269  0.17477868    -0.03300
C958        C  0.16704949  0.30828674  0.20231914    -0.07700
C959        C  0.19696950  0.30715813  0.23403138     0.05800
C960        C  0.21887573  0.27171550  0.23295475    -0.02800
Br961      Br  0.26982916  0.27676604  0.21030632    -0.02500
H962        H  0.17307626  0.23208761  0.24480019     0.09700
H963        H  0.14908629  0.33513468  0.19740773     0.07700
Br964      Br  0.12807009  0.27507326  0.12969505    -0.02900
C965        C  0.18678414  0.18957102  0.08445503    -0.09500
C966        C  0.18482335  0.18525529  0.12739594     0.06700
C967        C  0.15472894  0.15862330  0.14259389    -0.03300
C968        C  0.13256705  0.13425596  0.11612689    -0.07700
C969        C  0.13741245  0.13657274  0.07391909     0.05800
C970        C  0.16377506  0.16595261  0.05811177    -0.02800
Br971      Br  0.16752415  0.17848631  0.00106123    -0.02500
H972        H  0.20562540  0.21208630  0.07023210     0.09700
H973        H  0.11078394  0.11348463  0.12887053     0.07700
Br974      Br  0.13696569  0.15641710  0.19781137    -0.02900
C975        C  0.30889829  0.29791161  0.30145019    -0.09500
C976        C  0.29828439  0.25642042  0.29494608     0.06700
C977        C  0.25935942  0.24891874  0.31121229    -0.03300
C978        C  0.23093202  0.28110722  0.31249465    -0.07700
C979        C  0.24063528  0.32054781  0.29661347     0.05800
C980        C  0.28049466  0.32904142  0.30537124    -0.02800
Br981      Br  0.29094156  0.36630386  0.34855039    -0.02500
H982        H  0.33770448  0.30476151  0.31342518     0.09700
H983        H  0.20065497  0.27252856  0.31854075     0.07700
Br984      Br  0.24632938  0.20342501  0.34522442    -0.02900
C985        C  0.30934913  0.18356692  0.20186349    -0.09500
C986        C  0.29977930  0.19490898  0.24246415     0.06700
C987        C  0.26506992  0.17336608  0.25466615    -0.03300
C988        C  0.23422692  0.16728583  0.22528201    -0.07700
C989        C  0.24022390  0.17815170  0.18334927     0.05800
C990        C  0.27996967  0.16949755  0.17479347    -0.02800
Br991      Br  0.29061948  0.11688894  0.15240082    -0.02500
H992        H  0.33871716  0.17426165  0.19454041     0.09700
H993        H  0.20616412  0.15622705  0.23615169     0.07700
Br994      Br  0.27194825  0.12749196  0.29078296    -0.02900
C995        C  0.38651976  0.17969465  0.36552234    -0.09500
C996        C  0.40591627  0.14733440  0.34721538     0.06700
C997        C  0.39751380  0.13847302  0.30676487    -0.03300
C998        C  0.37003502  0.16198110  0.28514332    -0.07700
C999        C  0.35107929  0.19644052  0.30181403     0.05800
C1000       C  0.35959414  0.20436842  0.34391391    -0.02800
Br1001     Br  0.33840722  0.24648769  0.37751355    -0.02500
H1002       H  0.39260512  0.18587792  0.39725763     0.09700
H1003       H  0.36411373  0.15293675  0.25444245     0.07700
Br1004     Br  0.42506613  0.09616087  0.27888704    -0.02900
C1005       C  0.37385581  0.26279168  0.17253041    -0.09500
C1006       C  0.36098679  0.30307566  0.17794895     0.06700
C1007       C  0.37393229  0.31658367  0.21666293    -0.03300
C1008       C  0.37237535  0.28876976  0.24997362    -0.07700
C1009       C  0.35958431  0.24821403  0.24389425     0.05800
C1010       C  0.37500959  0.23542856  0.20594000    -0.02800
Br1011     Br  0.41524480  0.19423862  0.20311159    -0.02500
H1012       H  0.38891419  0.25480582  0.14497425     0.09700
H1013       H  0.38712467  0.29645182  0.27806688     0.07700
Br1014     Br  0.41253410  0.35964279  0.21990397    -0.02900
C1015       C  0.31116238  0.37231685  0.21140834    -0.09500
C1016       C  0.30229014  0.35528323  0.17310768     0.06700
C1017       C  0.26449614  0.36881887  0.15953287    -0.03300
C1018       C  0.23345210  0.36974884  0.18772568    -0.07700
C1019       C  0.24212810  0.36770251  0.22983956     0.05800
C1020       C  0.28079410  0.38137722  0.23878515    -0.02800
Br1021     Br  0.28869217  0.42897334  0.27105568    -0.02500
H1022       H  0.33983433  0.38467098  0.21749988     0.09700
H1023       H  0.20345941  0.37398111  0.17700095     0.07700
Br1024     Br  0.25901547  0.40444243  0.11334914    -0.02900
C1025       C  0.31145468  0.25344361  0.11676344    -0.09500
C1026       C  0.30492947  0.29599229  0.12117325     0.06700
C1027       C  0.26652260  0.30567413  0.10657315    -0.03300
C1028       C  0.23459081  0.27960402  0.11763679    -0.07700
C1029       C  0.24227704  0.23852032  0.12906352     0.05800
C1030       C  0.27962089  0.22609112  0.11441820    -0.02800
Br1031     Br  0.28516855  0.18245577  0.07652187    -0.02500
H1032       H  0.33958198  0.24060827  0.10993744     0.09700
H1033       H  0.20501677  0.28938971  0.11073499     0.07700
Br1034     Br  0.26373657  0.32675480  0.05205000    -0.02900
C1035       C  0.40931008  0.36796784  0.06776245    -0.09500
C1036       C  0.41100815  0.40925754  0.07684290     0.06700
C1037       C  0.38548861  0.42461646  0.10622845    -0.03300
C1038       C  0.36000553  0.39830397  0.12716023    -0.07700
C1039       C  0.35802639  0.35567489  0.11944780     0.05800
C1040       C  0.38334916  0.34137386  0.08788505    -0.02800
Br1041     Br  0.38541148  0.28772017  0.06631426    -0.02500
H1042       H  0.42805923  0.35627164  0.04391356     0.09700
H1043       H  0.34247248  0.41258867  0.15016463     0.07700
Br1044     Br  0.38586281  0.48108441  0.12097273    -0.02900
loop_ 
_geom_bond_atom_site_label_1 
_geom_bond_atom_site_label_2 
_geom_bond_distance 
_geom_bond_site_symmetry_2 
_ccdc_geom_bond_type 
C1         C1006   1.611       .  S
C1         C1016   1.611       .  S
C1         C1026   1.625       .  S
C1         C1039   1.566       .  S
C2          C976   1.639       .  S
C2          C986   1.637       .  S
C2          C999   1.564       .  S
C2         C1009   1.633       .  S
C3          C956   1.587       .  S
C3          C966   1.561       .  S
C3          C989   1.648       .  S
C3         C1029   1.607       .  S
C4          C949   1.564       .  S
C4          C959   1.574       .  S
C4          C979   1.633       .  S
C4         C1019   1.576       .  S
C5          C906   1.564       .  S
C5          C916   1.594       .  S
C5          C926   1.624       .  S
C5          C936   1.560       .  S
C6          C876   1.619       .  S
C6          C886   1.642       .  S
C6          C896   1.573       .  S
C6          C929   1.642       .  S
C7          C859   1.620       .  S
C7          C869   1.565       .  S
C7          C889   1.628       .  S
C7          C919   1.604       .  S
C8          C849   1.552       .  S
C8          C856   1.602       .  S
C8          C879   1.628       .  S
C8          C909   1.607       .  S
C9           N27   1.348       .  A
C9           C46   1.461       .  S
C9         C1036   1.471       .  S
N10          N27   1.323       .  A
N10          N32   1.318       .  A
N10         Co47   2.070   1_554  S
C11          N36   1.337       .  A
C11          C49   1.465       .  S
C11          H56   1.081       .  S
H12          C53   1.082       .  S
C13          N37   1.344       .  A
C13          C17   1.459       .  S
C13          H42   1.082       .  S
Co14         N32   2.079   1_556  S
Co14         N22   2.085   1_556  S
Co14         N54   2.086       .  S
Co14         N30   2.087       .  S
Co14        Cl58   2.453       .  S
N15          C53   1.341       .  A
N15          N22   1.319       .  A
N15         Co16   2.091   1_554  S
Co16         N19   2.089   1_556  S
Co16         N36   2.083       .  S
Co16         N23   2.087       .  S
Co16        Cl58   2.442       .  S
C17          N55   1.350       .  A
C17         C806   1.476       .  S
N18          N25   1.319       .  A
N18          N48   1.320       .  A
N18         Co51   2.074   1_554  S
N19          N37   1.320       .  A
N19          N55   1.326       .  A
N20          C49   1.353       .  A
N20          N30   1.327       .  A
H21          C46   1.082       .  S
N22          N43   1.324       .  A
N23          N41   1.319       .  A
N23          N28   1.324       .  A
C24          N28   1.351       .  A
C24          C52   1.458       .  S
C24         C796   1.472       .  S
N25          C40   1.337       .  A
N25         Co47   2.071   1_554  S
C26          N54   1.341       .  A
C26          C29   1.469       .  S
C26          H60   1.081       .  S
C29          N50   1.350       .  A
C29         C846   1.492       .  S
N30          N36   1.318       .  A
N31          C57   1.335       .  A
N31          N33   1.317       .  A
N31         Co47   2.063       .  S
N32          C46   1.338       .  A
N33          N61   1.321       .  A
N33         Co51   2.080       .  S
H34          C57   1.080       .  S
H35          C52   1.082       .  S
N37         Co51   2.086   1_554  S
N38          N50   1.323       .  A
N38          N54   1.319       .  A
N38         Co47   2.084       .  S
C39          N43   1.351       .  A
C39          C53   1.464       .  S
C39         C786   1.469       .  S
C40          C59   1.461       .  S
C40          H44   1.081       .  S
N41          C52   1.338       .  A
N41         Co51   2.072       .  S
C45          N61   1.351       .  A
C45          C57   1.461       .  S
C45         C819   1.475       .  S
Co47        Cl58   2.444       .  S
N48          C59   1.347       .  A
C49         C826   1.488       .  S
Co51        Cl58   2.448       .  S
C59         C836   1.476       .  S
C62         C756   1.594       .  S
C62         C766   1.628       .  S
C62         C776   1.647       .  S
C62         C839   1.545       .  S
C63         C726   1.644       .  S
C63         C736   1.636       .  S
C63         C746   1.567       .  S
C63         C779   1.643       .  S
C64         C706   1.634       .  S
C64         C716   1.575       .  S
C64         C729   1.636       .  S
C64         C769   1.674       .  S
C65         C696   1.558       .  S
C65         C709   1.609       .  S
C65         C739   1.640       .  S
C65         C759   1.579       .  S
C66          N84   1.352       .  A
C66         C103   1.463       .  S
C66         C699   1.480       .  S
N67          N84   1.323       .  A
N67          N89   1.319       .  A
N67        Co104   2.086       .  S
C68          N93   1.342       .  A
C68         C106   1.460       .  S
C68         H113   1.081       .  S
H69         C110   1.081       .  S
C70          N94   1.341       .  A
C70          C74   1.456       .  S
C70          H99   1.081       .  S
Co71         N89   2.075   1_545  S
Co71         N79   2.083       .  S
Co71        N111   2.072   1_545  S
Co71         N87   2.083       .  S
Co71       Cl115   2.442       .  S
N72         C110   1.342       .  A
N72          N79   1.320       .  A
N72         Co73   2.087       .  S
Co73         N76   2.100       .  S
Co73         N93   2.091       .  S
Co73         N80   2.084       .  S
Co73       Cl115   2.466       .  S
C74         N112   1.353       .  A
C74         C649   1.477       .  S
N75          N82   1.320       .  A
N75         N105   1.325       .  A
N75        Co108   2.089   1_565  S
N76          N94   1.321       .  A
N76         N112   1.328       .  A
N77         C106   1.349       .  A
N77          N87   1.324       .  A
H78         C103   1.080   1_545  S
N79         N100   1.324       .  A
N80          N98   1.319       .  A
N80          N85   1.327       .  A
C81          N85   1.351       .  A
C81         C109   1.461       .  S
C81         C686   1.476       .  S
N82          C97   1.342       .  A
N82        Co104   2.090       .  S
C83         N111   1.337       .  A
C83          C86   1.457       .  S
C83         H117   1.080       .  S
C86         N107   1.358       .  A
C86         C679   1.489       .  S
N87          N93   1.320       .  A
N88         C114   1.346       .  A
N88          N90   1.321       .  A
N88        Co104   2.101       .  S
N89         C103   1.337       .  A
N90         N118   1.322       .  A
N90        Co108   2.077   1_565  S
H91         C114   1.082       .  S
H92         C109   1.082       .  S
N94        Co108   2.085       .  S
N95         N107   1.329       .  A
N95         N111   1.319       .  A
N95        Co104   2.107       .  S
C96         N100   1.348       .  A
C96         C110   1.460       .  S
C96         C996   1.471       .  S
C97         C116   1.460       .  S
C97         H101   1.082       .  S
N98         C109   1.337       .  A
N98        Co108   2.085       .  S
C102        N118   1.346       .  A
C102        C114   1.469       .  S
C102        C656   1.479       .  S
Co104      Cl115   2.462   1_565  S
N105        C116   1.351       .  A
C106        C939   1.471       .  S
Co108      Cl115   2.438       .  S
C116        C669   1.473       .  S
C119        C619   1.612       .  S
C119        C626   1.766       .  S
C119        C636   1.742       .  S
C119        C829   1.553       .  S
C120        C586   1.744       .  S
C120        C596   1.612       .  S
C120        C606   1.543       .  S
C120        C639   1.730       .  S
C121        C576   1.657       .  S
C121        C589   1.720       .  S
C121        C616   1.699       .  S
C121        C689   1.553       .  S
C122        C569   1.559       .  S
C122        C579   1.655       .  S
C122        C599   1.706       .  S
C122        C629   1.771       .  S
C123        C536   1.636       .  S
C123        C546   1.634       .  S
C123        C556   1.620       .  S
C123        C816   1.562       .  S
C124        C516   1.586       .  S
C124        C526   1.620       .  S
C124        C559   1.627       .  S
C124        C676   1.553       .  S
C125        C496   1.590       .  S
C125        C509   1.557       .  S
C125        C519   1.584       .  S
C125        C539   1.609       .  S
C126        C486   1.573       .  S
C126        C499   1.611       .  S
C126        C529   1.643       .  S
C126        C549   1.621       .  S
C127        C456   1.612       .  S
C127        C466   1.618       .  S
C127        C476   1.628       .  S
C127        C666   1.562       .  S
C128        C426   1.629       .  S
C128        C436   1.625       .  S
C128        C449   1.568       .  S
C128        C479   1.638       .  S
C129        C416   1.629       .  S
C129        C429   1.626       .  S
C129        C459   1.598       .  S
C129        C809   1.570       .  S
C130        C406   1.548       .  S
C130        C419   1.580       .  S
C130        C439   1.621       .  S
C130        C469   1.584       .  S
C131        C376   1.645       .  S
C131        C386   1.605       .  S
C131        C396   1.604       .  S
C131        C799   1.561       .  S
C132        C346   1.623       .  S
C132        C356   1.623       .  S
C132        C366   1.579       .  S
C132        C389   1.611       .  S
C133        C336   1.623       .  S
C133        C349   1.637       .  S
C133        C379   1.635       .  S
C133        C659   1.578       .  S
C134        C329   1.558       .  S
C134        C339   1.632       .  S
C134        C359   1.585       .  S
C134        C399   1.571       .  S
C135        N153   1.357       .  A
C135        C172   1.469       .  S
C135        C316   1.500       .  S
N136        N153   1.325       .  A
N136        N158   1.317       .  A
N136       Co173   2.094   1_554  S
C137        N162   1.336   1_554  A
C137        C175   1.461       .  S
C137        H182   1.082   1_554  S
H138        C179   1.080   1_556  S
C139        N163   1.337       .  A
C139        C143   1.460       .  S
C139        H168   1.080       .  S
Co140       N158   2.083   1_455  S
Co140       N148   2.092       .  S
Co140       N180   2.094   1_445  S
Co140       N156   2.089   1_545  S
Co140      Cl184   2.454   1_554  S
N141        C179   1.341       .  A
N141        N148   1.320       .  A
N141       Co142   2.088   1_554  S
Co142       N145   2.091       .  S
Co142       N162   2.079   1_545  S
Co142       N149   2.086   1_545  S
Co142      Cl184   2.450       .  S
C143        N181   1.354       .  A
C143        C899   1.484       .  S
N144        N151   1.320       .  A
N144        N174   1.324       .  A
N144       Co177   2.084   1_655  S
N145        N163   1.318       .  A
N145        N181   1.326       .  A
N146        C175   1.353       .  A
N146        N156   1.327       .  A
H147        C172   1.076       .  S
N148        N169   1.325       .  A
N149        N167   1.322       .  A
N149        N154   1.324       .  A
C150        N154   1.348       .  A
C150        C178   1.465       .  S
C150        C489   1.478       .  S
N151        C166   1.342       .  A
N151       Co173   2.094       .  S
C152        N180   1.341       .  A
C152        C155   1.464       .  S
C152        H186   1.082       .  S
C155        N176   1.350       .  A
C155        C409   1.472       .  S
N156        N162   1.319   1_554  A
N157        C183   1.340       .  A
N157        N159   1.320       .  A
N157       Co173   2.081   1_565  S
N158        C172   1.340       .  A
N159        N187   1.325       .  A
N159       Co177   2.091   1_665  S
H160        C183   1.080       .  S
H161        C178   1.081       .  S
N163       Co177   2.075       .  S
N164        N176   1.325       .  A
N164        N180   1.321       .  A
N164       Co173   2.088   1_564  S
C165        N169   1.353       .  A
C165        C179   1.465       .  S
C165        C969   1.488       .  S
C166        C185   1.466       .  S
C166        H170   1.082       .  S
N167        C178   1.346       .  A
N167       Co177   2.101   1_565  S
C171        N187   1.353       .  A
C171        C183   1.460       .  S
C171        C326   1.483       .  S
Co173      Cl184   2.454   1_655  S
N174        C185   1.349       .  A
C175        C749   1.483       .  S
Co177      Cl184   2.452       .  S
C185        C566   1.472       .  S
C188        C286   1.591       .  S
C188        C296   1.626       .  S
C188        C306   1.646       .  S
C188        C646   1.557       .  S
C189        C266   1.634       .  S
C189        C276   1.654       .  S
C189        C309   1.639       .  S
C189        C319   1.562       .  S
C190        C256   1.603       .  S
C190        C269   1.623       .  S
C190        C289   1.593       .  S
C190        C789   1.554       .  S
C191        C249   1.564       .  S
C191        C259   1.635       .  S
C191        C279   1.641       .  S
C191        C299   1.650       .  S
C192        N210   1.350       .  A
C192        C229   1.466       .  S
C192        C866   1.484       .  S
N193        N210   1.327       .  A
N193        N215   1.322       .  A
N193       Co230   2.090       .  S
C194        N219   1.341       .  A
C194        C232   1.464       .  S
C194        H239   1.081       .  S
H195        C236   1.081       .  S
C196        N220   1.343       .  A
C196        C200   1.467       .  S
C196        H225   1.081       .  S
Co197       N215   2.106       .  S
Co197       N205   2.087       .  S
Co197       N237   2.086   1_455  S
Co197       N213   2.106   1_455  S
Co197      Cl241   2.456       .  S
N198        C236   1.342       .  A
N198        N205   1.320       .  A
N198       Co199   2.092       .  S
Co199       N202   2.087       .  S
Co199       N219   2.094   1_455  S
Co199       N206   2.103   1_455  S
Co199      Cl241   2.449       .  S
C200        N238   1.350       .  A
C200        C719   1.491       .  S
N201        N208   1.316       .  A
N201        N231   1.320       .  A
N201       Co234   2.059       .  S
N202        N220   1.320       .  A
N202        N238   1.323       .  A
N203        C232   1.354       .  A
N203        N213   1.327       .  A
H204        C229   1.082       .  S
N205        N226   1.327       .  A
N206        N224   1.318       .  A
N206        N211   1.325       .  A
C207        N211   1.356       .  A
C207        C235   1.462       .  S
C207        C446   1.492       .  S
N208        C223   1.337       .  A
N208       Co230   2.066       .  S
C209        N237   1.340       .  A
C209        C212   1.458       .  S
C209        H243   1.082       .  S
C212        N233   1.345       .  A
C212        C609   1.465       .  S
N213        N219   1.324       .  A
N214        C240   1.345       .  A
N214        N216   1.323       .  A
N214       Co230   2.102   1_655  S
N215        C229   1.343       .  A
N216        N244   1.327       .  A
N216       Co234   2.103   1_655  S
H217        C240   1.082       .  S
H218        C235   1.079       .  S
N220       Co234   2.094       .  S
N221        N233   1.323       .  A
N221        N237   1.321       .  A
N221       Co230   2.068   1_655  S
C222        N226   1.352       .  A
C222        C236   1.465       .  S
C222        C946   1.494       .  S
C223        C242   1.460       .  S
C223        H227   1.082       .  S
N224        C235   1.341       .  A
N224       Co234   2.067   1_655  S
C228        N244   1.352       .  A
C228        C240   1.463       .  S
C228        C369   1.482       .  S
Co230      Cl241   2.457       .  S
N231        C242   1.344       .  A
C232        C246   1.490       .  S
Co234      Cl241   2.454       .  S
C242        C506   1.469       .  S
C245        H252   1.084       .  S
C245        C246   1.398       .  A
C245        C250   1.408       .  A
C246        C247   1.407       .  A
C247        C248   1.400       .  A
C247       Br254   1.921       .  S
C248        H253   1.079       .  S
C248        C249   1.416       .  A
C249        C250   1.437       .  A
C250       Br251   1.919       .  S
C255        H262   1.080       .  S
C255        C256   1.425       .  A
C255        C260   1.417       .  A
C256        C257   1.417       .  A
C257        C258   1.427       .  A
C257       Br264   1.919       .  S
C258        H263   1.077       .  S
C258        C259   1.427       .  A
C259        C260   1.408       .  A
C260       Br261   1.918       .  S
C265        H272   1.064       .  S
C265        C266   1.430       .  A
C265        C270   1.423       .  A
C266        C267   1.429       .  A
C267        C268   1.417       .  A
C267       Br274   1.915       .  S
C268        H273   1.068       .  S
C268        C269   1.418       .  A
C269        C270   1.426       .  A
C270       Br271   1.920       .  S
C275        H282   1.073       .  S
C275        C276   1.430       .  A
C275        C280   1.424       .  A
C276        C277   1.423       .  A
C277        C278   1.431       .  A
C277       Br284   1.919       .  S
C278        H283   1.076       .  S
C278        C279   1.431       .  A
C279        C280   1.413       .  A
C280       Br281   1.921       .  S
C285        H292   1.028       .  S
C285        C286   1.349       .  A
C285        C290   1.325       .  A
C286        C287   1.462       .  A
C287        C288   1.474       .  A
C287       Br294   1.912       .  S
C288        H293   1.080       .  S
C288        C289   1.445       .  A
C289        C290   1.365       .  A
C290       Br291   1.791       .  S
C295        H302   1.079       .  S
C295        C296   1.415       .  A
C295        C300   1.419       .  A
C296        C297   1.423       .  A
C297        C298   1.417       .  A
C297       Br304   1.917       .  S
C298        H303   1.070       .  S
C298        C299   1.419       .  A
C299        C300   1.438       .  A
C300       Br301   1.919       .  S
C305        H312   1.072       .  S
C305        C306   1.442       .  A
C305        C310   1.444       .  A
C306        C307   1.408       .  A
C307        C308   1.420       .  A
C307       Br314   1.921       .  S
C308        H313   1.074       .  S
C308        C309   1.420       .  A
C309        C310   1.436       .  A
C310       Br311   1.917       .  S
C315        H322   1.084       .  S
C315        C316   1.401       .  A
C315        C320   1.402       .  A
C316        C317   1.415       .  A
C317        C318   1.401       .  A
C317       Br324   1.917       .  S
C318        H323   1.077       .  S
C318        C319   1.411       .  A
C319        C320   1.438       .  A
C320       Br321   1.930       .  S
C325        H332   1.084       .  S
C325        C326   1.396       .  A
C325        C330   1.402       .  A
C326        C327   1.407       .  A
C327        C328   1.398       .  A
C327       Br334   1.921       .  S
C328        H333   1.076       .  S
C328        C329   1.414       .  A
C329        C330   1.434       .  A
C330       Br331   1.922       .  S
C335        H342   1.071       .  S
C335        C336   1.420       .  A
C335        C340   1.414       .  A
C336        C337   1.424       .  A
C337        C338   1.430       .  A
C337       Br344   1.921       .  S
C338        H343   1.077       .  S
C338        C339   1.436       .  A
C339        C340   1.402       .  A
C340       Br341   1.920       .  S
C345        H352   1.068       .  S
C345        C346   1.431       .  A
C345        C350   1.411       .  A
C346        C347   1.414       .  A
C347        C348   1.420       .  A
C347       Br354   1.925       .  S
C348        H353   1.069       .  S
C348        C349   1.434       .  A
C349        C350   1.404       .  A
C350       Br351   1.919       .  S
C355        H362   1.068       .  S
C355        C356   1.413       .  A
C355        C360   1.405       .  A
C356        C357   1.428       .  A
C357        C358   1.406       .  A
C357       Br364   1.920       .  S
C358        H363   1.079       .  S
C358        C359   1.415       .  A
C359        C360   1.416       .  A
C360       Br361   1.916       .  S
C365        H372   1.075       .  S
C365        C366   1.426       .  A
C365        C370   1.400       .  A
C366        C367   1.434       .  A
C367        C368   1.408       .  A
C367       Br374   1.909       .  S
C368        H373   1.084       .  S
C368        C369   1.394       .  A
C369        C370   1.398       .  A
C370       Br371   1.920       .  S
C375        H382   1.073       .  S
C375        C376   1.412       .  A
C375        C380   1.418       .  A
C376        C377   1.429       .  A
C377        C378   1.424       .  A
C377       Br384   1.908       .  S
C378        H383   1.064       .  S
C378        C379   1.424       .  A
C379        C380   1.426       .  A
C380       Br381   1.921       .  S
C385        H392   1.068       .  S
C385        C386   1.417       .  A
C385        C390   1.407       .  A
C386        C387   1.442       .  A
C387        C388   1.415       .  A
C387       Br394   1.932       .  S
C388        H393   1.075       .  S
C388        C389   1.407       .  A
C389        C390   1.405       .  A
C390       Br391   1.921       .  S
C395        H402   1.087       .  S
C395        C396   1.367       .  A
C395        C400   1.354       .  A
C396        C397   1.451       .  A
C397        C398   1.465       .  A
C397       Br404   1.917       .  S
C398        H403   1.081       .  S
C398        C399   1.453       .  A
C399        C400   1.376       .  A
C400       Br401   1.883       .  S
C405        H412   1.081       .  S
C405        C406   1.417       .  A
C405        C410   1.401       .  A
C406        C407   1.434       .  A
C407        C408   1.399       .  A
C407       Br414   1.924       .  S
C408        H413   1.085       .  S
C408        C409   1.393       .  A
C409        C410   1.399       .  A
C410       Br411   1.917       .  S
C415        H422   1.087       .  S
C415        C416   1.371       .  A
C415        C420   1.356       .  A
C416        C417   1.464       .  A
C417        C418   1.464       .  A
C417       Br424   1.915       .  S
C418        H423   1.076       .  S
C418        C419   1.444       .  A
C419        C420   1.376       .  A
C420       Br421   1.851       .  S
C425        H432   1.063       .  S
C425        C426   1.429       .  A
C425        C430   1.428       .  A
C426        C427   1.416       .  A
C427        C428   1.405       .  A
C427       Br434   1.918       .  S
C428        H433   1.069       .  S
C428        C429   1.419       .  A
C429        C430   1.424       .  A
C430       Br431   1.919       .  S
C435        H442   1.077       .  S
C435        C436   1.420       .  A
C435        C440   1.417       .  A
C436        C437   1.422       .  A
C437        C438   1.427       .  A
C437       Br444   1.920       .  S
C438        H443   1.080       .  S
C438        C439   1.430       .  A
C439        C440   1.407       .  A
C440       Br441   1.921       .  S
C445        H452   1.084       .  S
C445        C446   1.393       .  A
C445        C450   1.399       .  A
C446        C447   1.412       .  A
C447        C448   1.405       .  A
C447       Br454   1.920       .  S
C448        H453   1.075       .  S
C448        C449   1.417       .  A
C449        C450   1.439       .  A
C450       Br451   1.922       .  S
C455        H462   1.071       .  S
C455        C456   1.423       .  A
C455        C460   1.407       .  A
C456        C457   1.418       .  A
C457        C458   1.417       .  A
C457       Br464   1.922       .  S
C458        H463   1.072       .  S
C458        C459   1.419       .  A
C459        C460   1.401       .  A
C460       Br461   1.916       .  S
C465        H472   1.078       .  S
C465        C466   1.415       .  A
C465        C470   1.414       .  A
C466        C467   1.398       .  A
C467        C468   1.403       .  A
C467       Br474   1.922       .  S
C468        H473   1.066       .  S
C468        C469   1.418       .  A
C469        C470   1.429       .  A
C470       Br471   1.918       .  S
C475        H482   1.068       .  S
C475        C476   1.426       .  A
C475        C480   1.415       .  A
C476        C477   1.430       .  A
C477        C478   1.416       .  A
C477       Br484   1.922       .  S
C478        H483   1.074       .  S
C478        C479   1.420       .  A
C479        C480   1.410       .  A
C480       Br481   1.918       .  S
C485        H492   1.075       .  S
C485        C486   1.423       .  A
C485        C490   1.404       .  A
C486        C487   1.436       .  A
C487        C488   1.403       .  A
C487       Br494   1.910       .  S
C488        H493   1.084       .  S
C488        C489   1.390       .  A
C489        C490   1.400       .  A
C490       Br491   1.919       .  S
C495        H502   1.076       .  S
C495        C496   1.423       .  A
C495        C500   1.406       .  A
C496        C497   1.414       .  A
C497        C498   1.420       .  A
C497       Br504   1.915       .  S
C498        H503   1.078       .  S
C498        C499   1.416       .  A
C499        C500   1.403       .  A
C500       Br501   1.917       .  S
C505        H512   1.085       .  S
C505        C506   1.388       .  A
C505        C510   1.394       .  A
C506        C507   1.403       .  A
C507        C508   1.393       .  A
C507       Br514   1.922       .  S
C508        H513   1.072       .  S
C508        C509   1.413       .  A
C509        C510   1.445       .  A
C510       Br511   1.930       .  S
C515        H522   1.087       .  S
C515        C516   1.361       .  A
C515        C520   1.348       .  A
C516        C517   1.452       .  A
C517        C518   1.466       .  A
C517       Br524   1.915       .  S
C518        H523   1.078       .  S
C518        C519   1.453       .  A
C519        C520   1.377       .  A
C520       Br521   1.860       .  S
C525        H532   1.072       .  S
C525        C526   1.412       .  A
C525        C530   1.413       .  A
C526        C527   1.431       .  A
C527        C528   1.417       .  A
C527       Br534   1.921       .  S
C528        H533   1.069       .  S
C528        C529   1.414       .  A
C529        C530   1.431       .  A
C530       Br531   1.920       .  S
C535        H542   1.071       .  S
C535        C536   1.417       .  A
C535        C540   1.403       .  A
C536        C537   1.441       .  A
C537        C538   1.423       .  A
C537       Br544   1.908       .  S
C538        H543   1.084       .  S
C538        C539   1.427       .  A
C539        C540   1.406       .  A
C540       Br541   1.916       .  S
C545        H552   1.076       .  S
C545        C546   1.425       .  A
C545        C550   1.424       .  A
C546        C547   1.397       .  A
C547        C548   1.408       .  A
C547       Br554   1.922       .  S
C548        H553   1.065       .  S
C548        C549   1.433       .  A
C549        C550   1.418       .  A
C550       Br551   1.923       .  S
C555        H562   1.064       .  S
C555        C556   1.428       .  A
C555        C560   1.403       .  A
C556        C557   1.420       .  A
C557        C558   1.431       .  A
C557       Br564   1.921       .  S
C558        H563   1.076       .  S
C558        C559   1.433       .  A
C559        C560   1.390       .  A
C560       Br561   1.922       .  S
C565        H572   1.084       .  S
C565        C566   1.395       .  A
C565        C570   1.406       .  A
C566        C567   1.398       .  A
C567        C568   1.393       .  A
C567       Br574   1.923       .  S
C568        H573   1.078       .  S
C568        C569   1.421       .  A
C569        C570   1.437       .  A
C570       Br571   1.939       .  S
C575        H582   1.078       .  S
C575        C576   1.438       .  A
C575        C580   1.445       .  A
C576        C577   1.430       .  A
C577        C578   1.437       .  A
C577       Br584   1.919       .  S
C578        H583   1.083       .  S
C578        C579   1.434       .  A
C579        C580   1.427       .  A
C580       Br581   1.917       .  S
C585        H592   1.076       .  S
C585        C586   1.458       .  A
C585        C590   1.474       .  A
C586        C587   1.448       .  A
C587        C588   1.459       .  A
C587       Br594   1.916       .  S
C588        H593   1.063       .  S
C588        C589   1.445       .  A
C589        C590   1.460       .  A
C590       Br591   1.908       .  S
C595        H602   1.078       .  S
C595        C596   1.451       .  A
C595        C600   1.482       .  A
C596        C597   1.357       .  A
C597        C598   1.382       .  A
C597       Br604   1.949       .  S
C598        H603   0.996       .  S
C598        C599   1.410       .  A
C599        C600   1.458       .  A
C600       Br601   1.920       .  S
C605        H612   1.074       .  S
C605        C606   1.412       .  A
C605        C610   1.401       .  A
C606        C607   1.431       .  A
C607        C608   1.392       .  A
C607       Br614   1.916       .  S
C608        H613   1.085       .  S
C608        C609   1.386       .  A
C609        C610   1.404       .  A
C610       Br611   1.918       .  S
C615        H622   1.006       .  S
C615        C616   1.423       .  A
C615        C620   1.387       .  A
C616        C617   1.475       .  A
C617        C618   1.484       .  A
C617       Br624   1.907       .  S
C618        H623   1.081       .  S
C618        C619   1.451       .  A
C619        C620   1.350       .  A
C620       Br621   1.981       .  S
C625        H632   1.080       .  S
C625        C626   1.456       .  A
C625        C630   1.493       .  A
C626        C627   1.469       .  A
C627        C628   1.481       .  A
C627       Br634   1.913       .  S
C628        H633   1.067       .  S
C628        C629   1.452       .  A
C629        C630   1.480       .  A
C630       Br631   1.922       .  S
C635        H642   1.082       .  S
C635        C636   1.447       .  A
C635        C640   1.474       .  A
C636        C637   1.472       .  A
C637        C638   1.460       .  A
C637       Br644   1.927       .  S
C638        H643   1.078       .  S
C638        C639   1.438       .  A
C639        C640   1.457       .  A
C640       Br641   1.906       .  S
C645        H652   1.076       .  S
C645        C646   1.417       .  A
C645        C650   1.401       .  A
C646        C647   1.431       .  A
C647        C648   1.404       .  A
C647       Br654   1.918       .  S
C648        H653   1.084       .  S
C648        C649   1.394       .  A
C649        C650   1.401       .  A
C650       Br651   1.917       .  S
C655        H662   1.084       .  S
C655        C656   1.398       .  A
C655        C660   1.405       .  A
C656        C657   1.393       .  A
C657        C658   1.397       .  A
C657       Br664   1.921       .  S
C658        H663   1.071       .  S
C658        C659   1.430       .  A
C659        C660   1.430       .  A
C660       Br661   1.906       .  S
C665        H672   1.075       .  S
C665        C666   1.420       .  A
C665        C670   1.397       .  A
C666        C667   1.437       .  A
C667        C668   1.405       .  A
C667       Br674   1.921       .  S
C668        H673   1.084       .  S
C668        C669   1.394       .  A
C669        C670   1.396       .  A
C670       Br671   1.919       .  S
C675        H682   1.076       .  S
C675        C676   1.412       .  A
C675        C680   1.401       .  A
C676        C677   1.430       .  A
C677        C678   1.401       .  A
C677       Br684   1.922       .  S
C678        H683   1.084       .  S
C678        C679   1.398       .  A
C679        C680   1.411       .  A
C680       Br681   1.921       .  S
C685        H692   1.083       .  S
C685        C686   1.404       .  A
C685        C690   1.413       .  A
C686        C687   1.399       .  A
C687        C688   1.383       .  A
C687       Br694   1.923       .  S
C688        H693   1.079       .  S
C688        C689   1.419       .  A
C689        C690   1.428       .  A
C690       Br691   1.920       .  S
C695        H702   1.078       .  S
C695        C696   1.422       .  A
C695        C700   1.394       .  A
C696        C697   1.431       .  A
C697        C698   1.399       .  A
C697       Br704   1.917       .  S
C698        H703   1.084       .  S
C698        C699   1.397       .  A
C699        C700   1.403       .  A
C700       Br701   1.920       .  S
C705        H712   1.067       .  S
C705        C706   1.434       .  A
C705        C710   1.426       .  A
C706        C707   1.412       .  A
C707        C708   1.414       .  A
C707       Br714   1.929       .  S
C708        H713   1.068       .  S
C708        C709   1.429       .  A
C709        C710   1.413       .  A
C710       Br711   1.918       .  S
C715        H722   1.063       .  S
C715        C716   1.409       .  A
C715        C720   1.397       .  A
C716        C717   1.443       .  A
C717        C718   1.406       .  A
C717       Br724   1.928       .  S
C718        H723   1.083       .  S
C718        C719   1.398       .  A
C719        C720   1.406       .  A
C720       Br721   1.924       .  S
C725        H732   1.069       .  S
C725        C726   1.433       .  A
C725        C730   1.434       .  A
C726        C727   1.420       .  A
C727        C728   1.410       .  A
C727       Br734   1.917       .  S
C728        H733   1.076       .  S
C728        C729   1.419       .  A
C729        C730   1.422       .  A
C730       Br731   1.919       .  S
C735        H742   1.062       .  S
C735        C736   1.433       .  A
C735        C740   1.418       .  A
C736        C737   1.424       .  A
C737        C738   1.428       .  A
C737       Br744   1.921       .  S
C738        H743   1.069       .  S
C738        C739   1.424       .  A
C739        C740   1.421       .  A
C740       Br741   1.920       .  S
C745        H752   1.075       .  S
C745        C746   1.424       .  A
C745        C750   1.402       .  A
C746        C747   1.432       .  A
C747        C748   1.397       .  A
C747       Br754   1.916       .  S
C748        H753   1.083       .  S
C748        C749   1.395       .  A
C749        C750   1.401       .  A
C750       Br751   1.920       .  S
C755        H762   1.044       .  S
C755        C756   1.345       .  A
C755        C760   1.321       .  A
C756        C757   1.466       .  A
C757        C758   1.464       .  A
C757       Br764   1.920       .  S
C758        H763   1.078       .  S
C758        C759   1.439       .  A
C759        C760   1.369       .  A
C760       Br761   1.775       .  S
C765        H772   1.072       .  S
C765        C766   1.421       .  A
C765        C770   1.419       .  A
C766        C767   1.424       .  A
C767        C768   1.424       .  A
C767       Br774   1.913       .  S
C768        H773   1.061       .  S
C768        C769   1.430       .  A
C769        C770   1.426       .  A
C770       Br771   1.921       .  S
C775        H782   1.081       .  S
C775        C776   1.414       .  A
C775        C780   1.426       .  A
C776        C777   1.453       .  A
C777        C778   1.435       .  A
C777       Br784   1.911       .  S
C778        H783   1.072       .  S
C778        C779   1.419       .  A
C779        C780   1.418       .  A
C780       Br781   1.921       .  S
C785        H792   1.085       .  S
C785        C786   1.387       .  A
C785        C790   1.394       .  A
C786        C787   1.399       .  A
C787        C788   1.404       .  A
C787       Br794   1.917       .  S
C788        H793   1.078       .  S
C788        C789   1.417       .  A
C789        C790   1.441       .  A
C790       Br791   1.929       .  S
C795        H802   1.084       .  S
C795        C796   1.398       .  A
C795        C800   1.400       .  A
C796        C797   1.398       .  A
C797        C798   1.395       .  A
C797       Br804   1.922       .  S
C798        H803   1.075       .  S
C798        C799   1.420       .  A
C799        C800   1.428       .  A
C800       Br801   1.921       .  S
C805        H812   1.084       .  S
C805        C806   1.391       .  A
C805        C810   1.403       .  A
C806        C807   1.399       .  A
C807        C808   1.402       .  A
C807       Br814   1.920       .  S
C808        H813   1.076       .  S
C808        C809   1.422       .  A
C809        C810   1.433       .  A
C810       Br811   1.910       .  S
C815        H822   1.074       .  S
C815        C816   1.426       .  A
C815        C820   1.390       .  A
C816        C817   1.424       .  A
C817        C818   1.398       .  A
C817       Br824   1.908       .  S
C818        H823   1.084       .  S
C818        C819   1.398       .  A
C819        C820   1.400       .  A
C820       Br821   1.924       .  S
C825        H832   1.082       .  S
C825        C826   1.395       .  A
C825        C830   1.393       .  A
C826        C827   1.408       .  A
C827        C828   1.406       .  A
C827       Br834   1.920       .  S
C828        H833   1.075       .  S
C828        C829   1.418       .  A
C829        C830   1.421       .  A
C830       Br831   1.900       .  S
C835        H842   1.083       .  S
C835        C836   1.399       .  A
C835        C840   1.399       .  A
C836        C837   1.405       .  A
C837        C838   1.389       .  A
C837       Br844   1.925       .  S
C838        H843   1.071       .  S
C838        C839   1.407       .  A
C839        C840   1.429       .  A
C840       Br841   1.918       .  S
C845        H852   1.082       .  S
C845        C846   1.401       .  A
C845        C850   1.402       .  A
C846        C847   1.411       .  A
C847        C848   1.396       .  A
C847       Br854   1.923       .  S
C848        H853   1.075       .  S
C848        C849   1.411       .  A
C849        C850   1.433       .  A
C850       Br851   1.928       .  S
C855        H862   1.073       .  S
C855        C856   1.420       .  A
C855        C860   1.410       .  A
C856        C857   1.400       .  A
C857        C858   1.410       .  A
C857       Br864   1.917       .  S
C858        H863   1.068       .  S
C858        C859   1.427       .  A
C859        C860   1.420       .  A
C860       Br861   1.916       .  S
C865        H872   1.084       .  S
C865        C866   1.400       .  A
C865        C870   1.411       .  A
C866        C867   1.401       .  A
C867        C868   1.394       .  A
C867       Br874   1.921       .  S
C868        H873   1.070       .  S
C868        C869   1.416       .  A
C869        C870   1.435       .  A
C870       Br871   1.922       .  S
C875        H882   1.062       .  S
C875        C876   1.422       .  A
C875        C880   1.417       .  A
C876        C877   1.433       .  A
C877        C878   1.415       .  A
C877       Br884   1.931       .  S
C878        H883   1.079       .  S
C878        C879   1.409       .  A
C879        C880   1.418       .  A
C880       Br881   1.913       .  S
C885        H892   1.071       .  S
C885        C886   1.423       .  A
C885        C890   1.423       .  A
C886        C887   1.415       .  A
C887        C888   1.411       .  A
C887       Br894   1.921       .  S
C888        H893   1.070       .  S
C888        C889   1.427       .  A
C889        C890   1.413       .  A
C890       Br891   1.921       .  S
C895        H902   1.064       .  S
C895        C896   1.411       .  A
C895        C900   1.394       .  A
C896        C897   1.444       .  A
C897        C898   1.407       .  A
C897       Br904   1.924       .  S
C898        H903   1.084       .  S
C898        C899   1.396       .  A
C899        C900   1.404       .  A
C900       Br901   1.922       .  S
C905        H912   1.081       .  S
C905        C906   1.444       .  A
C905        C910   1.458       .  A
C906        C907   1.376       .  A
C907        C908   1.358       .  A
C907       Br914   1.873       .  S
C908        H913   1.087       .  S
C908        C909   1.372       .  A
C909        C910   1.460       .  A
C910       Br911   1.913       .  S
C915        H922   1.079       .  S
C915        C916   1.418       .  A
C915        C920   1.409       .  A
C916        C917   1.423       .  A
C917        C918   1.408       .  A
C917       Br924   1.917       .  S
C918        H923   1.079       .  S
C918        C919   1.404       .  A
C919        C920   1.411       .  A
C920       Br921   1.921       .  S
C925        H932   1.074       .  S
C925        C926   1.435       .  A
C925        C930   1.436       .  A
C926        C927   1.397       .  A
C927        C928   1.407       .  A
C927       Br934   1.921       .  S
C928        H933   1.071       .  S
C928        C929   1.432       .  A
C929        C930   1.430       .  A
C930       Br931   1.923       .  S
C935        H942   1.074       .  S
C935        C936   1.420       .  A
C935        C940   1.393       .  A
C936        C937   1.431       .  A
C937        C938   1.406       .  A
C937       Br944   1.919       .  S
C938        H943   1.084       .  S
C938        C939   1.396       .  A
C939        C940   1.397       .  A
C940       Br941   1.923       .  S
C945        H952   1.083       .  S
C945        C946   1.399       .  A
C945        C950   1.403       .  A
C946        C947   1.411       .  A
C947        C948   1.403       .  A
C947       Br954   1.921       .  S
C948        H953   1.076       .  S
C948        C949   1.413       .  A
C949        C950   1.435       .  A
C950       Br951   1.925       .  S
C955        H962   1.087       .  S
C955        C956   1.366       .  A
C955        C960   1.353       .  A
C956        C957   1.448       .  A
C957        C958   1.465       .  A
C957       Br964   1.915       .  S
C958        H963   1.082       .  S
C958        C959   1.449       .  A
C959        C960   1.381       .  A
C960       Br961   1.882       .  S
C965        H972   1.078       .  S
C965        C966   1.420       .  A
C965        C970   1.401       .  A
C966        C967   1.426       .  A
C967        C968   1.402       .  A
C967       Br974   1.915       .  S
C968        H973   1.084       .  S
C968        C969   1.400       .  A
C969        C970   1.407       .  A
C970       Br971   1.921       .  S
C975        H982   1.072       .  S
C975        C976   1.426       .  A
C975        C980   1.410       .  A
C976        C977   1.440       .  A
C977        C978   1.430       .  A
C977       Br984   1.908       .  S
C978        H983   1.078       .  S
C978        C979   1.429       .  A
C979        C980   1.402       .  A
C980       Br981   1.916       .  S
C985        H992   1.067       .  S
C985        C986   1.429       .  A
C985        C990   1.410       .  A
C986        C987   1.423       .  A
C987        C988   1.433       .  A
C987       Br994   1.922       .  S
C988        H993   1.074       .  S
C988        C989   1.436       .  A
C989        C990   1.402       .  A
C990       Br991   1.921       .  S
C995       H1002   1.084       .  S
C995        C996   1.393       .  A
C995       C1000   1.405       .  A
C996        C997   1.393       .  A
C997        C998   1.396       .  A
C997      Br1004   1.918       .  S
C998       H1003   1.074       .  S
C998        C999   1.418       .  A
C999       C1000   1.440       .  A
C1000     Br1001   1.921       .  S
C1005      H1012   1.076       .  S
C1005      C1006   1.407       .  A
C1005      C1010   1.412       .  A
C1006      C1007   1.420       .  A
C1007      C1008   1.420       .  A
C1007     Br1014   1.923       .  S
C1008      H1013   1.080       .  S
C1008      C1009   1.415       .  A
C1009      C1010   1.423       .  A
C1010     Br1011   1.922       .  S
C1015      H1022   1.067       .  S
C1015      C1016   1.415       .  A
C1015      C1020   1.401       .  A
C1016      C1017   1.420       .  A
C1017      C1018   1.402       .  A
C1017     Br1024   1.916       .  S
C1018      H1023   1.079       .  S
C1018      C1019   1.416       .  A
C1019      C1020   1.410       .  A
C1020     Br1021   1.917       .  S
C1025      H1032   1.065       .  S
C1025      C1026   1.424       .  A
C1025      C1030   1.401       .  A
C1026      C1027   1.416       .  A
C1027      C1028   1.420       .  A
C1027     Br1034   1.917       .  S
C1028      H1033   1.072       .  S
C1028      C1029   1.421       .  A
C1029      C1030   1.414       .  A
C1030     Br1031   1.920       .  S
C1035      H1042   1.084       .  S
C1035      C1036   1.393       .  A
C1035      C1040   1.398       .  A
C1036      C1037   1.396       .  A
C1037      C1038   1.395       .  A
C1037     Br1044   1.922       .  S
C1038      H1043   1.075       .  S
C1038      C1039   1.427       .  A
C1039      C1040   1.431       .  A
C1040     Br1041   1.908       .  S
