geometry optimzed in LAMMPS
_audit_creation_date              2020-11-30 
_audit_creation_method            'lammps2cif' 
_symmetry_space_group_name_H-M    'P1' 
_symmetry_Int_Tables_number       1 
_symmetry_cell_setting            triclinic 
loop_ 
_symmetry_equiv_pos_as_xyz 
  x,y,z 
_cell_length_a                    33.43824701 
_cell_length_b                    33.74351212858394 
_cell_length_c                    43.702142132522475 
_cell_angle_alpha                 89.7814384976654 
_cell_angle_beta                  91.02002070228848 
_cell_angle_gamma                 120.37658091559135 
loop_ 
_atom_site_label 
_atom_site_type_symbol 
_atom_site_fract_x 
_atom_site_fract_y 
_atom_site_fract_z 
_atom_site_charge 
O1          O  0.42829000  0.24484102  0.87485510    -0.79100
C2          C  0.40886102  0.10976404  0.87919174     0.81900
O3          O  0.40742625  0.19077148  0.76965224    -0.80200
O4          O  0.28419339  0.04765402  0.81983390    -0.81700
O5          O  0.26307336  0.15441567  0.87868891    -0.81500
O6          O  0.36463441  0.25033396  0.87566902    -0.80100
Zn7        Zn  0.41265773  0.19174548  0.84737499     1.55700
O8          O  0.26224719  0.08837473  0.88391771    -0.81500
Cd9        Cd  0.31804527  0.19360817  0.85078462     1.59700
Cd10       Cd  0.34227300  0.15448472  0.78956375     1.59600
O11         O  0.29254524  0.21429107  0.81482398    -0.81500
O12         O  0.34752435  0.15907778  0.83553207    -1.92000
Cd13       Cd  0.31533915  0.09675084  0.85450462     1.59900
O14         O  0.30620255  0.18535099  0.77300939    -0.81500
O15         O  0.36459810  0.08572133  0.87703095    -0.80100
C16         C  0.44702901  0.21704685  0.78215854     0.82400
C17         C  0.40674178  0.26489197  0.88315285     0.82100
O18         O  0.43125970  0.15026400  0.86846047    -0.79100
C19         C  0.24523737  0.11405585  0.88949005     0.82900
O20         O  0.45270118  0.22006613  0.81106826    -0.79200
C21         C  0.28986265  0.20770725  0.78602655     0.83000
C22         C  0.28359198  0.04827053  0.79059850     0.83300
O23         O  0.30566460  0.08578066  0.77573214    -0.81600
C24         C  0.19767027  0.29711619  0.72985960     0.85900
C25         C  0.14595144  0.27549868  0.73771872    -0.54400
C26         C  0.12486375  0.29775768  0.72572355     0.08800
C27         C  0.15771971  0.34109276  0.70739143     0.19700
C28         C  0.19839005  0.30045857  0.69500230    -0.55100
C29         C  0.17731241  0.32281713  0.68287151     0.08900
C30         C  0.21882181  0.34655833  0.74169219    -0.54600
C31         C  0.19888574  0.37001575  0.72982216     0.09500
H32         H  0.12708547  0.24656282  0.75277552     0.14000
H33         H  0.14076445  0.35964989  0.69792561    -0.00300
H34         H  0.21034478  0.28215584  0.68096456     0.14300
H35         H  0.24655826  0.36155795  0.75881924     0.14100
C36         C  0.49805356  0.44391685  0.94206423     0.85900
C37         C  0.05167526  0.47559411  0.93699064    -0.54400
C38         C  0.06895065  0.02129891  0.94735858     0.08800
C39         C  0.03292117  0.03304071  0.95972322     0.19700
C40         C  0.48993050  0.44839238  0.97615504    -0.55100
C41         C  0.00638652  0.99598588  0.98408388     0.08900
C42         C  0.47922988  0.47137933  0.92548484    -0.54600
C43         C  0.49661126  0.01753554  0.93601573     0.09500
H44         H  0.07130135  0.46183664  0.92642178     0.14000
H45         H  0.04786154  0.06884942  0.96821180    -0.00300
H46         H  0.47119648  0.42013188  0.99170327     0.14300
H47         H  0.45197374  0.45639002  0.90800677     0.14100
O48         O  0.47890148  0.39190909  0.46370892    -0.79100
C49         C  0.09440390  0.03007623  0.45026012     0.81900
O50         O  0.01642146  0.44784040  0.56822563    -0.80200
O51         O  0.04483647  0.08993996  0.51972945    -0.81700
O52         O  0.41563890  0.99567134  0.45046486    -0.81500
O53         O  0.41460311  0.39467017  0.45591456    -0.80100
Zn54       Zn  0.02179393  0.44737213  0.48985713     1.55700
O55         O  0.48120727  0.06250539  0.45766509    -0.81500
Cd56       Cd  0.42771482  0.45299779  0.47991390     1.59700
Cd57       Cd  0.48389209  0.48025425  0.54622359     1.59600
O58         O  0.37764719  0.43279055  0.51279204    -0.81500
O59         O  0.48995761  0.48184680  0.50044781    -1.92000
Cd60       Cd  0.02287721  0.04407808  0.48366510     1.59900
O61         O  0.41437443  0.44940909  0.55797581    -0.81500
O62         O  0.07807529  0.05581353  0.45695087    -0.80100
C63         C  0.04065425  0.43222705  0.55687849     0.82400
C64         C  0.43817102  0.37500159  0.45204528     0.82100
O65         O  0.07680299  0.98976583  0.46110125    -0.79100
C66         C  0.44050026  0.03886285  0.44629619     0.82900
O67         O  0.04564657  0.43111363  0.52805818    -0.79200
C68         C  0.37705732  0.43362911  0.54190639     0.83000
C69         C  0.03945044  0.08563750  0.54856231     0.83300
O70         O  0.01817114  0.04664673  0.56161183    -0.81600
C71         C  0.27302964  0.11950838  0.39048378     0.85900
C72         C  0.30129720  0.16505488  0.40815868    -0.54400
C73         C  0.34587365  0.19192598  0.39889959     0.08800
C74         C  0.35956233  0.16957074  0.37354085     0.19700
C75         C  0.27838769  0.13285530  0.35679133    -0.55100
C76         C  0.32323330  0.15914400  0.34772098     0.08900
C77         C  0.30189390  0.09607408  0.39488496    -0.54600
C78         C  0.34714585  0.12195011  0.38660538     0.09500
H79         H  0.28657319  0.17628562  0.42573581     0.14000
H80         H  0.39600572  0.19114184  0.36620976    -0.00300
H81         H  0.24896894  0.12391047  0.34153320     0.14300
H82         H  0.29036889  0.06438070  0.40729025     0.14100
C83         C  0.12613847  0.26672809  0.60491788     0.85900
C84         C  0.17327822  0.29515550  0.58985831    -0.54400
C85         C  0.19923903  0.33889703  0.60065995     0.08800
C86         C  0.17486140  0.35158167  0.62538866     0.19700
C87         C  0.13636416  0.27072747  0.63931925    -0.55100
C88         C  0.16163968  0.31457809  0.65030223     0.08900
C89         C  0.10295736  0.29582836  0.59955649    -0.54600
C90         C  0.12806992  0.34017025  0.61007645     0.09500
H91         H  0.18539877  0.28165021  0.57200623     0.14000
H92         H  0.19579682  0.38724292  0.63415498    -0.00300
H93         H  0.12558640  0.24093287  0.65378193     0.14300
H94         H  0.07068913  0.28438061  0.58714412     0.14100
O95         O  0.24986922  0.41982627  0.12516463    -0.79100
C96         C  0.11154472  0.40000655  0.11509906     0.81900
O97         O  0.18784068  0.41509690  0.22585723    -0.80200
O98         O  0.04896786  0.28482853  0.18172626    -0.81700
O99         O  0.15304842  0.25765983  0.12287170    -0.81500
O100        O  0.25311391  0.35561347  0.12691086    -0.80100
Zn101      Zn  0.19433235  0.40644622  0.14867484     1.55700
O102        O  0.08746502  0.25905914  0.11803257    -0.81500
Cd103      Cd  0.19434008  0.31268357  0.15135030     1.59700
Cd104      Cd  0.15908462  0.34737873  0.21020981     1.59600
O105        O  0.21520374  0.29119610  0.18963791    -0.81500
O106        O  0.16109097  0.34486459  0.16427162    -1.92000
Cd107      Cd  0.09673379  0.31228925  0.14658931     1.59900
O108        O  0.19673476  0.31981602  0.22959629    -0.81500
O109        O  0.08420825  0.35792385  0.12167107    -0.80100
C110        C  0.21063274  0.45225566  0.21083010     0.82400
C111        C  0.26942310  0.39713820  0.11874217     0.82100
O112        O  0.15396547  0.42127008  0.12326623    -0.79100
C113        C  0.11245121  0.24175654  0.11132719     0.82900
O114        O  0.21671410  0.45159132  0.18235210    -0.79200
C115        C  0.21499775  0.29799890  0.21830374     0.83000
C116        C  0.05190136  0.28664532  0.21095515     0.83300
O117        O  0.09098665  0.30868077  0.22500528    -0.81600
C118        C  0.44967243  0.49054853  0.06110252     0.85900
C119        C  0.47763113  0.04245756  0.06414899    -0.54400
C120        C  0.02001503  0.06396773  0.05465964     0.08800
C121        C  0.03293783  0.03004578  0.04043350     0.19700
C122        C  0.45384262  0.48236765  0.02695966    -0.55100
C123        C  0.99597947  0.00468429  0.01525543     0.08900
C124        C  0.47878956  0.47336370  0.07731594    -0.54600
C125        C  0.02488357  0.49541696  0.06563370     0.09500
H126        H  0.46270705  0.06122282  0.07438499     0.14000
H127        H  0.06872839  0.04577930  0.03178582    -0.00300
H128        H  0.42517862  0.46162712  0.01159224     0.14300
H129        H  0.46492538  0.44672452  0.09464143     0.14100
C130        C  0.30891055  0.21280669  0.27526541     0.85900
C131        C  0.28290592  0.16330589  0.26264456    -0.54400
C132        C  0.30235774  0.13726592  0.26980507     0.08800
C133        C  0.34742187  0.16372145  0.28927927     0.19700
C134        C  0.31363669  0.20738214  0.30961490    -0.55100
C135        C  0.33300601  0.18131042  0.31727544     0.08900
C136        C  0.35763652  0.23175830  0.26249357    -0.54600
C137        C  0.37843642  0.20714013  0.27014478     0.09500
H138        H  0.25225589  0.15006981  0.24795710     0.14000
H139        H  0.36410709  0.14346390  0.29531069    -0.00300
H140        H  0.29837124  0.21916151  0.32646572     0.14300
H141        H  0.37405510  0.26098673  0.24731734     0.14100
C142        C  0.40134281  0.46824535  0.07513966    -0.06700
C143        C  0.36151267  0.43534223  0.05865634    -0.17900
C144        C  0.31798817  0.41170382  0.07216641     0.10500
C145        C  0.31346998  0.42087657  0.10281604    -0.06700
C146        C  0.35208999  0.45373338  0.11932490    -0.17900
C147        C  0.39595332  0.47681385  0.10631326     0.10500
S148        S  0.26965504  0.36989014  0.04919313    -0.32900
S149        S  0.44436229  0.51582448  0.13070864    -0.32900
H150        H  0.42115949  0.50359573  0.15873068     0.28500
H151        H  0.23535220  0.37503730  0.06370355     0.28500
H152        H  0.36330202  0.42628614  0.03536785     0.19100
H153        H  0.34783258  0.46049116  0.14290144     0.19100
C154        C  0.05165594  0.11399642  0.06109582    -0.06700
C155        C  0.03323440  0.14314276  0.05744747    -0.17900
C156        C  0.05350809  0.18623191  0.07186568     0.10500
C157        C  0.09354707  0.20086414  0.09064265    -0.06700
C158        C  0.11527167  0.17437380  0.09085516    -0.17900
C159        C  0.09526034  0.13152793  0.07603665     0.10500
S160        S  0.02722110  0.22128497  0.06606299    -0.32900
S161        S  0.12490206  0.09931828  0.07851735    -0.32900
H162        H  0.16697821  0.13454567  0.09103918     0.28500
H163        H  0.99152753  0.19153494  0.04574163     0.28500
H164        H  0.50464407  0.13093560  0.04556091     0.19100
H165        H  0.14697015  0.18609496  0.10409466     0.19100
C166        C  0.05561452  0.47898267  0.07701688    -0.06700
C167        C  0.06425430  0.45128820  0.05749436    -0.17900
C168        C  0.08288859  0.42502779  0.06894422     0.10500
C169        C  0.09329161  0.42691508  0.10051894    -0.06700
C170        C  0.08675149  0.45623262  0.11963418    -0.17900
C171        C  0.06761260  0.48183337  0.10844967     0.10500
S172        S  0.09070757  0.38873374  0.04246327    -0.32900
S173        S  0.05079855  0.01194529  0.13618821    -0.32900
H174        H  0.04586393  0.04090551  0.11531904     0.28500
H175        H  0.12527073  0.38589100  0.05939634     0.28500
H176        H  0.05406727  0.44817102  0.03353380     0.19100
H177        H  0.09532125  0.45807471  0.14383868     0.19100
C178        C  0.23658067  0.27950270  0.23891617    -0.06700
C179        C  0.28396341  0.30642501  0.24594786    -0.17900
C180        C  0.30773788  0.28769945  0.26126590     0.10500
C181        C  0.28429401  0.23977882  0.26747753    -0.06700
C182        C  0.23545202  0.21526822  0.26441970    -0.18500
C183        C  0.21161873  0.23423236  0.24978341     0.10500
S184        S  0.36621335  0.32781495  0.27403422    -0.32900
S185        S  0.14990752  0.19780259  0.24373934    -0.32900
H186        H  0.13933577  0.23314794  0.24359727     0.28500
H187        H  0.36539683  0.30204210  0.29960105     0.28500
H188        H  0.30262638  0.34222315  0.23926998     0.19100
H189        H  0.21550634  0.18018075  0.27229279     0.19100
C190        C  0.23100221  0.49767079  0.22618507    -0.06700
C191        C  0.24322999  0.50186513  0.25742793    -0.17900
C192        C  0.27320687  0.05090062  0.27278072     0.10500
C193        C  0.28310317  0.09056717  0.25591933    -0.06700
C194        C  0.26998681  0.08560340  0.22484972    -0.17900
C195        C  0.24583909  0.04273517  0.21068085     0.10500
S196        S  0.28567043  0.05424441  0.31326595    -0.32900
S197        S  0.22386688  0.04170104  0.17245956    -0.32900
H198        H  0.17704996  0.49853029  0.17487230     0.28500
H199        H  0.26946524  0.00728842  0.31785784     0.28500
H200        H  0.23534339  0.47131059  0.27023081     0.19100
H201        H  0.27702692  0.11558109  0.21156956     0.19100
C202        C  0.42624185  0.22290627  0.25955346    -0.06700
C203        C  0.46179775  0.26626639  0.26964959    -0.17900
C204        C  0.50442056  0.28960879  0.25475775     0.10500
C205        C  0.00829625  0.26196821  0.22870176    -0.06700
C206        C  0.47756450  0.22486376  0.21996107    -0.17900
C207        C  0.43482857  0.20182009  0.23469799     0.10500
S208        S  0.04754460  0.32755559  0.27691428    -0.32900
S209        S  0.39129239  0.14747783  0.21900577    -0.32900
H210        H  0.38180827  0.12520783  0.24739695     0.28500
H211        H  0.05918693  0.35485423  0.25047098     0.28500
H212        H  0.45503881  0.28350621  0.28800242     0.19100
H213        H  0.48321074  0.20847270  0.20056738     0.19100
C214        C  0.13543763  0.04829404  0.43008405    -0.06700
C215        C  0.15331365  0.09261565  0.41792438    -0.17900
C216        C  0.19546324  0.11453973  0.40246091     0.10500
C217        C  0.22231998  0.09285111  0.40049709    -0.06700
C218        C  0.20137795  0.04640086  0.40914022    -0.17900
C219        C  0.15847249  0.02389050  0.42340167     0.10500
S220        S  0.21428415  0.17031372  0.38565371    -0.32900
S221        S  0.15280108  0.47414085  0.45646016    -0.32900
H222        H  0.19108513  0.46993665  0.44857341     0.28500
H223        H  0.17889354  0.17672268  0.39708399     0.28500
H224        H  0.13452487  0.11061430  0.42092426     0.19100
H225        H  0.21754205  0.02641918  0.40452563     0.19100
C226        C  0.41728299  0.33061540  0.43461799    -0.06700
C227        C  0.43781370  0.30307210  0.43747689    -0.17900
C228        C  0.41676920  0.25859269  0.42471150     0.10500
C229        C  0.37378397  0.24064090  0.40916166    -0.06700
C230        C  0.35444139  0.26873719  0.40491156    -0.17900
C231        C  0.37588638  0.31343582  0.41672553     0.10500
S232        S  0.44366676  0.22424680  0.43000410    -0.32900
S233        S  0.85381612  0.34638446  0.40466528    -0.32900
H234        H  0.89675882  0.38632831  0.39948869     0.28500
H235        H  0.48429504  0.25805354  0.44490895     0.28500
H236        H  0.46970883  0.31575992  0.45065446     0.19100
H237        H  0.32203208  0.25556802  0.39215861     0.19100
C238        C  0.38057301  0.10973284  0.40010396    -0.06700
C239        C  0.38241013  0.10839218  0.43219839    -0.17900
C240        C  0.40108310  0.08488971  0.44738275     0.10500
C241        C  0.42011984  0.06320513  0.43039784    -0.06700
C242        C  0.42049813  0.06613269  0.39832463    -0.17900
C243        C  0.40085411  0.08918020  0.38299952     0.10500
S244        S  0.39731554  0.08185789  0.48851868    -0.32900
S245        S  0.40056191  0.08912397  0.34182589    -0.32900
H246        H  0.40117252  0.13080892  0.33877771     0.28500
H247        H  0.38925865  0.03688620  0.49119873     0.28500
H248        H  0.36605767  0.12314726  0.44555293     0.19100
H249        H  0.43555503  0.04990788  0.38519141     0.19100
C250        C  0.33167261  0.41469915  0.55751789    -0.06700
C251        C  0.32924432  0.40304645  0.58867331    -0.17900
C252        C  0.28683974  0.38043658  0.60371299     0.10500
C253        C  0.24560850  0.36976966  0.58780604    -0.06700
C254        C  0.24792574  0.38289684  0.55714798    -0.17900
C255        C  0.29029533  0.40606396  0.54195513     0.10500
S256        S  0.28687329  0.36224758  0.64233161    -0.32900
S257        S  0.29011231  0.42448261  0.50299945    -0.32900
H258        H  0.24318481  0.41222130  0.50121839     0.28500
H259        H  0.25179560  0.31677131  0.63614124     0.28500
H260        H  0.36027016  0.40943245  0.60113015     0.19100
H261        H  0.21598367  0.37402805  0.54493597     0.19100
C262        C  0.05723578  0.12762699  0.56703106    -0.06700
C263        C  0.10014996  0.14532914  0.58204288    -0.17900
C264        C  0.12195976  0.18912950  0.59569734     0.10500
C265        C  0.10064712  0.21657402  0.59366922    -0.06700
C266        C  0.05573917  0.19643534  0.58046143    -0.17900
C267        C  0.03412190  0.15269316  0.56728956     0.10500
S268        S  0.17756535  0.20950287  0.61482039    -0.32900
S269        S  0.97717004  0.13123381  0.55051370    -0.32900
H270        H  0.96159352  0.08434260  0.55468256     0.28500
H271        H  0.18101073  0.17015675  0.61002268     0.28500
H272        H  0.11722372  0.12530914  0.58209629     0.19100
H273        H  0.03630097  0.21386875  0.58005919     0.19100
C274        C  0.06456484  0.41534254  0.57726528    -0.06700
C275        C  0.11257676  0.43445062  0.57436265    -0.17900
C276        C  0.13600940  0.41403755  0.58815185     0.10500
C277        C  0.11043376  0.37244922  0.60434077    -0.06700
C278        C  0.06317472  0.35609065  0.60962463    -0.17900
C279        C  0.04019236  0.37720625  0.59654022     0.10500
S280        S  0.19748520  0.43983016  0.58264227    -0.32900
S281        S  0.97868003  0.35043583  0.60196619    -0.32900
H282        H  0.96820260  0.85335082  0.56796905     0.28500
H283        H  0.20434822  0.47967653  0.56761705     0.28500
H284        H  0.13132258  0.46435919  0.56003350     0.19100
H285        H  0.04323786  0.32473771  0.62248881     0.19100
C286        C  0.43228637  0.30801472  0.90012775    -0.06700
C287        C  0.46509232  0.34620240  0.88413472    -0.17900
C288        C  0.48645418  0.39013211  0.89709972     0.10500
C289        C  0.47699661  0.39586569  0.92794792    -0.06700
C290        C  0.44436122  0.35651232  0.94397602    -0.17900
C291        C  0.42176590  0.31301037  0.93030915     0.10500
S292        S  0.52332237  0.43826356  0.87282767    -0.32900
S293        S  0.37893997  0.26546899  0.95228139    -0.32900
H294        H  0.38324797  0.23094900  0.93745697     0.28500
H295        H  0.02039725  0.41868129  0.84403501     0.28500
H296        H  0.47217828  0.34170088  0.86071017     0.19100
H297        H  0.43419780  0.35877200  0.96681662     0.19100
C298        C  0.11818708  0.05465101  0.94036256    -0.06700
C299        C  0.12674647  0.08722378  0.91771865    -0.17900
C300        C  0.16783914  0.10749807  0.90118503     0.10500
C301        C  0.20261174  0.09627201  0.90803926    -0.06700
C302        C  0.19561475  0.06658562  0.93263438    -0.17900
C303        C  0.15414468  0.04621677  0.94901229     0.10500
S304        S  0.17080886  0.14302010  0.86934726    -0.32900
S305        S  0.14817605  0.00860772  0.98023192    -0.32900
H306        H  0.11366039  0.01277695  0.99535583     0.28500
H307        H  0.18623379  0.12200732  0.84862585     0.28500
H308        H  0.09939172  0.09351187  0.91067120     0.19100
H309        H  0.22228589  0.05863229  0.93885319     0.19100
C310        C  0.43461810  0.09005568  0.89489033    -0.06700
C311        C  0.41365660  0.06077715  0.91973593    -0.17900
C312        C  0.43477490  0.03916569  0.93474221     0.10500
C313        C  0.47826432  0.04711083  0.92514004    -0.06700
C314        C  0.50017972  0.07753891  0.90098146    -0.17900
C315        C  0.47882739  0.09879817  0.88561579     0.10500
S316        S  0.40437047  0.99937534  0.96499824    -0.32900
S317        S  0.50811281  0.13330714  0.85283509    -0.32900
H318        H  0.46782115  0.11559300  0.83428312     0.28500
H319        H  0.37163409  0.01307417  0.96991328     0.28500
H320        H  0.37998088  0.05397113  0.92701301     0.19100
H321        H  0.53268340  0.08244288  0.89268504     0.19100
C322        C  0.26636622  0.22637469  0.76749593    -0.06700
C323        C  0.29274116  0.26965026  0.75429086    -0.17900
C324        C  0.27142090  0.29220317  0.74064798     0.10500
C325        C  0.22234158  0.27188046  0.74168001    -0.06700
C326        C  0.19642140  0.22639294  0.75261133    -0.17900
C327        C  0.21781952  0.20373276  0.76540501     0.10500
S328        S  0.30774413  0.34664622  0.72208071    -0.32900
S329        S  0.18119514  0.14602605  0.77913911    -0.32900
H330        H  0.21246557  0.13071500  0.77354970     0.28500
H331        H  0.35042361  0.34871610  0.72710240     0.28500
H332        H  0.33017924  0.28613959  0.75534780     0.19100
H333        H  0.15916365  0.20702653  0.75076282     0.19100
C334        C  0.07555406  0.28134757  0.73248619    -0.06700
C335        C  0.06565576  0.30650550  0.75327807    -0.17900
C336        C  0.02257892  0.28674008  0.76750079     0.10500
C337        C  0.48812916  0.24404725  0.76304691    -0.06700
C338        C  0.49657616  0.22151140  0.73939976    -0.17900
C339        C  0.04008797  0.23670797  0.72381588     0.10500
S340        S  0.01445145  0.32147124  0.79519371    -0.32900
S341        S  0.05103438  0.20362154  0.69636896    -0.32900
H342        H  0.00888936  0.16213981  0.69976615     0.28500
H343        H  0.46520487  0.30179958  0.79484003     0.28500
H344        H  0.09256953  0.34072996  0.75996193     0.19100
H345        H  0.47056765  0.18644696  0.73368059     0.19100
C346        C  0.21406297  0.41718999  0.74103429    -0.06700
C347        C  0.19688929  0.42167789  0.76904804    -0.17900
C348        C  0.21718929  0.46391085  0.78483392     0.10500
C349        C  0.25719489  0.00405953  0.77334237    -0.06700
C350        C  0.27358791  0.99989292  0.74480078    -0.17900
C351        C  0.25177831  0.45645933  0.72811660     0.10500
S352        S  0.19228418  0.46710974  0.82050749    -0.32900
S353        S  0.27783800  0.45421703  0.69292511    -0.32900
H354        H  0.23728200  0.41780759  0.68005119     0.28500
H355        H  0.15455963  0.92300715  0.82063448     0.28500
H356        H  0.16878672  0.39132747  0.77927997     0.19100
H357        H  0.30411179  0.02903470  0.73540150     0.19100
O358        O  0.43315441  0.74644441  0.87227570    -0.79100
C359        C  0.40890639  0.60804111  0.87876230     0.81900
O360        O  0.40677691  0.68839201  0.76756631    -0.80200
O361        O  0.28475125  0.54707891  0.81873364    -0.81700
O362        O  0.26718712  0.65638083  0.87955363    -0.81500
O363        O  0.36967904  0.75205185  0.87446080    -0.80100
Zn364      Zn  0.41477705  0.69087315  0.84588763     1.55700
O365        O  0.26408197  0.58908321  0.88243570    -0.81500
Cd366      Cd  0.32138786  0.69479292  0.85066266     1.59700
Cd367      Cd  0.34206939  0.65420909  0.78836438     1.59600
O368        O  0.29540441  0.71627751  0.81544414    -0.81500
O369        O  0.34930122  0.65915889  0.83440208    -1.92000
Cd370      Cd  0.31654658  0.59656608  0.85309112     1.59900
O371        O  0.30747778  0.68750439  0.77290738    -0.81500
O372        O  0.36472512  0.58427278  0.87587896    -0.80100
C373        C  0.44704069  0.71316873  0.77963716     0.82400
C374        C  0.41219230  0.76700062  0.88087118     0.82100
O375        O  0.43168160  0.64871207  0.86828008    -0.79100
C376        C  0.24842843  0.61544647  0.88945884     0.82900
O377        O  0.45363086  0.71600235  0.80851613    -0.79200
C378        C  0.29213899  0.71032478  0.78657440     0.83000
C379        C  0.28271584  0.54751512  0.78953509     0.83300
O380        O  0.30361153  0.58510418  0.77457226    -0.81600
C381        C  0.19835041  0.79926148  0.73105541     0.85900
C382        C  0.14674091  0.77771613  0.73926745    -0.54400
C383        C  0.12530038  0.79955547  0.72715101     0.08800
C384        C  0.15770023  0.84253003  0.70839404     0.19700
C385        C  0.19843467  0.80190171  0.69614061    -0.55100
C386        C  0.17710456  0.82402338  0.68395476     0.08900
C387        C  0.21953099  0.84890671  0.74237963    -0.54600
C388        C  0.19917807  0.87190801  0.73040782     0.09500
H389        H  0.12808646  0.74908336  0.75456929     0.14000
H390        H  0.14047301  0.86079433  0.69886745    -0.00300
H391        H  0.21040325  0.78356643  0.68215345     0.14300
H392        H  0.24756863  0.86438180  0.75927698     0.14100
C393        C  0.49768533  0.94593162  0.94025189     0.85900
C394        C  0.04982593  0.97690963  0.93763187    -0.54400
C395        C  0.07173952  0.52001555  0.94681180     0.08800
C396        C  0.03651212  0.53243388  0.95985744     0.19700
C397        C  0.49044387  0.94905734  0.97476048    -0.55100
C398        C  0.01083041  0.49604851  0.98468464     0.08900
C399        C  0.47756768  0.97362289  0.92550774    -0.54600
C400        C  0.49725628  0.51535678  0.93551160     0.09500
H401        H  0.07042867  0.96370174  0.92780236     0.14000
H402        H  0.05201067  0.56841430  0.96812343    -0.00300
H403        H  0.47012221  0.92008364  0.98946924     0.14300
H404        H  0.44966744  0.95928618  0.90845895     0.14100
O405        O  0.47822703  0.89232482  0.46071391    -0.79100
C406        C  0.09833209  0.52954227  0.45539522     0.81900
O407        O  0.01581900  0.94619203  0.56578043    -0.80200
O408        O  0.04723098  0.58990398  0.52306138    -0.81700
O409        O  0.42013540  0.49874812  0.45139441    -0.81500
O410        O  0.41299873  0.89367976  0.45411461    -0.80100
Zn411      Zn  0.02342199  0.94917668  0.48796864     1.55700
O412        O  0.48479546  0.56524106  0.46139926    -0.81500
Cd413      Cd  0.42505235  0.95104199  0.47882121     1.59700
Cd414      Cd  0.48332027  0.98023019  0.54418743     1.59600
O415        O  0.37554773  0.93098268  0.51237021    -0.81500
O416        O  0.48820381  0.98108283  0.49831329    -1.92000
Cd417      Cd  0.02647565  0.54479555  0.48670453     1.59900
O418        O  0.41420640  0.95026682  0.55691913    -0.81500
O419        O  0.08388269  0.55657054  0.46272327    -0.80100
C420        C  0.04188772  0.93272525  0.55441443     0.82400
C421        C  0.43739339  0.87517300  0.44919683     0.82100
O422        O  0.07701942  0.48773621  0.46379101    -0.79100
C423        C  0.44499220  0.54225893  0.44866408     0.82900
O424        O  0.04872224  0.93401167  0.52572705    -0.79200
C425        C  0.37623595  0.93358520  0.54149430     0.83000
C426        C  0.03951310  0.58549672  0.55163596     0.83300
O427        O  0.01610198  0.54647108  0.56438501    -0.81600
C428        C  0.27645172  0.61745170  0.39312369     0.85900
C429        C  0.30473080  0.66505488  0.40827197    -0.54400
C430        C  0.34825161  0.69216829  0.39710177     0.08800
C431        C  0.36085628  0.66810125  0.37231071     0.19700
C432        C  0.27833413  0.62703901  0.35877483    -0.55100
C433        C  0.32204882  0.65376237  0.34782172     0.08900
C434        C  0.30754950  0.59638120  0.39766093    -0.54600
C435        C  0.35146967  0.62254179  0.38721374     0.09500
H436        H  0.29056981  0.67718869  0.42566512     0.14000
H437        H  0.39621655  0.68951337  0.36313446    -0.00300
H438        H  0.24747261  0.61569941  0.34448737     0.14300
H439        H  0.29880493  0.56595554  0.41081372     0.14100
C440        C  0.12652225  0.76780771  0.60608723     0.85900
C441        C  0.17393131  0.79617139  0.59125545    -0.54400
C442        C  0.19975645  0.84005117  0.60191803     0.08800
C443        C  0.17502374  0.85281701  0.62635538     0.19700
C444        C  0.13625968  0.77201695  0.64051395    -0.55100
C445        C  0.16151027  0.81587493  0.65139239     0.08900
C446        C  0.10343431  0.79688203  0.60026413    -0.54600
C447        C  0.12838721  0.84131155  0.61068224     0.09500
H448        H  0.18623337  0.78257541  0.57358230     0.14000
H449        H  0.19584052  0.88851048  0.63510050    -0.00300
H450        H  0.12527211  0.74230360  0.65509366     0.14300
H451        H  0.07139367  0.78533613  0.58753692     0.14100
O452        O  0.25007787  0.92247515  0.12484161    -0.79100
C453        C  0.11040335  0.90043929  0.11657944     0.81900
O454        O  0.19550598  0.92023941  0.22731195    -0.80200
O455        O  0.05292144  0.78706852  0.18527048    -0.81700
O456        O  0.15554717  0.76034664  0.12424946    -0.81500
O457        O  0.25507782  0.85921572  0.12813847    -0.80100
Zn458      Zn  0.19530517  0.90952545  0.14941145     1.55700
O459        O  0.08906139  0.76015646  0.12058371    -0.81500
Cd460      Cd  0.19685993  0.81572503  0.15275524     1.59700
Cd461      Cd  0.16430415  0.85205330  0.21198180     1.59600
O462        O  0.21806790  0.79373092  0.19081338    -0.81500
O463        O  0.16376552  0.84810394  0.16584796    -1.92000
Cd464      Cd  0.09873377  0.81401209  0.14898724     1.59900
O465        O  0.20043517  0.82233810  0.23114135    -0.81500
O466        O  0.08405704  0.85841627  0.12387381    -0.80100
C467        C  0.21607575  0.95713858  0.21176249     0.82400
C468        C  0.27025854  0.90014570  0.11898011     0.82100
O469        O  0.15306186  0.92270226  0.12423698    -0.79100
C470        C  0.11445005  0.74349471  0.11334231     0.82900
O471        O  0.21900487  0.95581061  0.18291849    -0.79200
C472        C  0.21797958  0.79998707  0.21957613     0.83000
C473        C  0.05726065  0.79201126  0.21435295     0.83300
O474        O  0.09664675  0.81612866  0.22773036    -0.81600
C475        C  0.45036252  0.99004511  0.06113070     0.85900
C476        C  0.47745183  0.54299025  0.06427401    -0.54400
C477        C  0.02316429  0.56580653  0.05497553     0.08800
C478        C  0.03664980  0.53215762  0.04079941     0.19700
C479        C  0.45453320  0.98114831  0.02711724    -0.55100
C480        C  0.00005503  0.50607631  0.01544452     0.08900
C481        C  0.47989252  0.97340710  0.07738787    -0.54600
C482        C  0.02121620  0.99323154  0.06529222     0.09500
H483        H  0.46292109  0.56228274  0.07424458     0.14000
H484        H  0.07262315  0.54816780  0.03243087    -0.00300
H485        H  0.42594295  0.95847867  0.01226934     0.14300
H486        H  0.46619746  0.94662559  0.09462090     0.14100
C487        C  0.30655805  0.70808708  0.27545739     0.85900
C488        C  0.27944629  0.65901589  0.26216590    -0.54400
C489        C  0.29739931  0.63163066  0.26913515     0.08800
C490        C  0.34240172  0.65632223  0.28874436     0.19700
C491        C  0.31039075  0.70121166  0.30976134    -0.55100
C492        C  0.32868725  0.67404229  0.31692002     0.08900
C493        C  0.35545867  0.72603840  0.26294314    -0.54600
C494        C  0.37468645  0.69977383  0.27015958     0.09500
H495        H  0.24909497  0.64694556  0.24731599     0.14000
H496        H  0.35780503  0.63474006  0.29432820    -0.00300
H497        H  0.29632385  0.71379311  0.32692573     0.14300
H498        H  0.37305181  0.75580756  0.24831738     0.14100
C499        C  0.40212318  0.96836529  0.07528556    -0.06700
C500        C  0.36139831  0.93912028  0.05812206    -0.17900
C501        C  0.31773245  0.91693404  0.07156449     0.10500
C502        C  0.31412225  0.92372048  0.10284609    -0.06700
C503        C  0.35360318  0.95356068  0.11992125    -0.17900
C504        C  0.39739987  0.97584581  0.10680908     0.10500
S505        S  0.26801236  0.87999249  0.04770548    -0.32900
S506        S  0.44660569  0.01277615  0.13137190    -0.32900
H507        H  0.42215883  0.00877299  0.15815249     0.28500
H508        H  0.23563113  0.88622457  0.06389713     0.28500
H509        H  0.36243461  0.93259497  0.03416661     0.19100
H510        H  0.34997166  0.95859454  0.14395374     0.19100
C511        C  0.05449535  0.61581951  0.06229822    -0.06700
C512        C  0.03589866  0.64487818  0.05889885    -0.17900
C513        C  0.05565535  0.68766349  0.07378429     0.10500
C514        C  0.09554191  0.70234301  0.09273226    -0.06700
C515        C  0.11731808  0.67588598  0.09298726    -0.17900
C516        C  0.09765016  0.63317354  0.07788930     0.10500
S517        S  0.02919139  0.72256637  0.06810508    -0.32900
S518        S  0.12766056  0.60130723  0.08013132    -0.32900
H519        H  0.16206985  0.62965180  0.10163860     0.28500
H520        H  0.99191359  0.69163434  0.04922359     0.28500
H521        H  0.50739033  0.63197478  0.04349323     0.19100
H522        H  0.14907551  0.68782489  0.10619240     0.19100
C523        C  0.05219426  0.97718994  0.07723308    -0.06700
C524        C  0.06319347  0.95102172  0.05790462    -0.17900
C525        C  0.08260943  0.92556603  0.06975688     0.10500
C526        C  0.09077858  0.92611521  0.10163421    -0.06700
C527        C  0.08166114  0.95380394  0.12059743    -0.17900
C528        C  0.06252182  0.97918966  0.10891491     0.10500
S529        S  0.09448856  0.89210336  0.04327169    -0.32900
S530        S  0.05748129  0.51527422  0.13615730    -0.32900
H531        H  0.04820210  0.54181328  0.11569524     0.28500
H532        H  0.12866700  0.89000245  0.06117804     0.28500
H533        H  0.05457291  0.94866417  0.03369524     0.19100
H534        H  0.08887510  0.95507257  0.14498370     0.19100
C535        C  0.23821729  0.77964424  0.23995504    -0.06700
C536        C  0.28551320  0.80521327  0.24772401    -0.17900
C537        C  0.30796216  0.78477559  0.26274795     0.10500
C538        C  0.28331442  0.73659377  0.26801603    -0.06700
C539        C  0.23455763  0.71339808  0.26438109    -0.18500
C540        C  0.21201857  0.73390387  0.24992920     0.10500
S541        S  0.36641747  0.82301888  0.27640719    -0.32900
S542        S  0.15028113  0.69856704  0.24309977    -0.32900
H543        H  0.14053149  0.73421197  0.23953101     0.28500
H544        H  0.36402469  0.79576959  0.30149658     0.28500
H545        H  0.30518124  0.84128923  0.24182183     0.19100
H546        H  0.21360881  0.67810045  0.27164168     0.19100
C547        C  0.23737264  0.00292082  0.22699901    -0.06700
C548        C  0.25115852  0.00766589  0.25802943    -0.17900
C549        C  0.26538633  0.54493978  0.27224426     0.10500
C550        C  0.27669235  0.58488727  0.25528942    -0.06700
C551        C  0.26445934  0.58040533  0.22409881    -0.17900
C552        C  0.24065503  0.53772780  0.20970723     0.10500
S553        S  0.27597770  0.54768866  0.31291373    -0.32900
S554        S  0.22128760  0.53729785  0.17079122    -0.32900
H555        H  0.17972962  0.00346515  0.17787467     0.28500
H556        H  0.26166657  0.50106560  0.31714682     0.28500
H557        H  0.24435455  0.97738235  0.27077402     0.19100
H558        H  0.27244168  0.61064331  0.21081006     0.19100
C559        C  0.42207308  0.71351913  0.25962420    -0.06700
C560        C  0.45979756  0.75245916  0.27312401    -0.17900
C561        C  0.50327673  0.77543058  0.25918744     0.10500
C562        C  0.01488642  0.76926114  0.23294007    -0.06700
C563        C  0.47251237  0.71857369  0.21838845    -0.17900
C564        C  0.42920570  0.69571621  0.23243441     0.10500
S565        S  0.04155233  0.85406529  0.26215782    -0.32900
S566        S  0.38342008  0.64580648  0.21347036    -0.32900
H567        H  0.37037151  0.61967298  0.24038657     0.28500
H568        H  0.05580729  0.86621140  0.23178189     0.28500
H569        H  0.45444605  0.76693733  0.29368320     0.19100
H570        H  0.47677637  0.70495107  0.19706230     0.19100
C571        C  0.14103479  0.54774821  0.43689011    -0.06700
C572        C  0.15548996  0.58841226  0.42031360    -0.17900
C573        C  0.19736573  0.60981639  0.40450605     0.10500
C574        C  0.22681028  0.59078858  0.40552093    -0.06700
C575        C  0.20989012  0.54777048  0.41981926    -0.17900
C576        C  0.16832283  0.52662990  0.43591752     0.10500
S577        S  0.21276650  0.66225955  0.38399919    -0.32900
S578        S  0.13578271  0.96405996  0.43212655    -0.32900
H579        H  0.09221694  0.95013358  0.41837628     0.28500
H580        H  0.16833547  0.65719905  0.38339189     0.28500
H581        H  0.13424392  0.60421106  0.42022529     0.19100
H582        H  0.22887561  0.53002824  0.41912452     0.19100
C583        C  0.41744140  0.83180780  0.43069743    -0.06700
C584        C  0.44193301  0.80794671  0.42948015    -0.17900
C585        C  0.42193103  0.76365570  0.41655417     0.10500
C586        C  0.37573189  0.74185840  0.40544506    -0.06700
C587        C  0.35287957  0.76710147  0.40420805    -0.17900
C588        C  0.37335259  0.81180126  0.41581956     0.10500
S589        S  0.45505831  0.73497402  0.41591973    -0.32900
S590        S  0.87541837  0.85468109  0.39360715    -0.32900
H591        H  0.92048869  0.89299662  0.39628068     0.28500
H592        H  0.49671698  0.77139368  0.42802444     0.28500
H593        H  0.47635094  0.82333808  0.43963878     0.19100
H594        H  0.31827189  0.75155368  0.39419176     0.19100
C595        C  0.38698357  0.61210579  0.39887452    -0.06700
C596        C  0.40029524  0.62269154  0.42972743    -0.17900
C597        C  0.41995755  0.60100634  0.44612891     0.10500
C598        C  0.42642125  0.56740678  0.43159433    -0.06700
C599        C  0.41475583  0.55785566  0.40043579    -0.17900
C600        C  0.39568953  0.58030861  0.38389126     0.10500
S601        S  0.43222380  0.61505202  0.48620888    -0.32900
S602        S  0.38127010  0.56560937  0.34414607    -0.32900
H603        H  0.38465091  0.60752679  0.33609656     0.28500
H604        H  0.41954403  0.57050122  0.49594891     0.28500
H605        H  0.39166999  0.64525401  0.44187626     0.19100
H606        H  0.42025261  0.53260432  0.38900166     0.19100
C607        C  0.33158987  0.91569009  0.55791486    -0.06700
C608        C  0.32961808  0.90318543  0.58886305    -0.17900
C609        C  0.28750304  0.88101143  0.60433336     0.10500
C610        C  0.24608835  0.87112411  0.58894403    -0.06700
C611        C  0.24815721  0.88546919  0.55858572    -0.17900
C612        C  0.29038562  0.90899404  0.54322957     0.10500
S613        S  0.28812313  0.86284591  0.64288809    -0.32900
S614        S  0.29064642  0.93114443  0.50540323    -0.32900
H615        H  0.24427417  0.92084401  0.50472262     0.28500
H616        H  0.25184497  0.81775172  0.63721545     0.28500
H617        H  0.36071375  0.90863063  0.60076797     0.19100
H618        H  0.21619861  0.87750626  0.54674877     0.19100
C619        C  0.05709738  0.62756206  0.56997354    -0.06700
C620        C  0.10017761  0.64570562  0.58485342    -0.17900
C621        C  0.12220842  0.68996006  0.59783876     0.10500
C622        C  0.10099683  0.71744698  0.59519635    -0.06700
C623        C  0.05599851  0.69699741  0.58201787    -0.17900
C624        C  0.03415220  0.65278244  0.56950366     0.10500
S625        S  0.17786862  0.71076163  0.61702123    -0.32900
S626        S  0.97742594  0.63097233  0.55209100    -0.32900
H627        H  0.96123221  0.58438297  0.55818169     0.28500
H628        H  0.18213233  0.67198324  0.61176489     0.28500
H629        H  0.11718991  0.62562593  0.58532566     0.19100
H630        H  0.03671224  0.71457931  0.58108666     0.19100
C631        C  0.06510372  0.91480422  0.57455756    -0.06700
C632        C  0.11323963  0.93410292  0.57236611    -0.17900
C633        C  0.13658328  0.91451582  0.58738497     0.10500
C634        C  0.11089640  0.87358220  0.60420260    -0.06700
C635        C  0.06349332  0.85727900  0.60888948    -0.17900
C636        C  0.04034262  0.87705404  0.59411013     0.10500
S637        S  0.19849709  0.94151520  0.58371765    -0.32900
S638        S  0.97854948  0.84975764  0.59883016    -0.32900
H639        H  0.98062975  0.39150403  0.61049527     0.28500
H640        H  0.20396817  0.97456938  0.56190604     0.28500
H641        H  0.13234837  0.96405990  0.55814206     0.19100
H642        H  0.04345679  0.82643830  0.62221716     0.19100
C643        C  0.43831488  0.81091566  0.89711887    -0.06700
C644        C  0.46095879  0.85062046  0.87954831    -0.17900
C645        C  0.48152870  0.89423839  0.89307569     0.10500
C646        C  0.47813955  0.89847338  0.92527047    -0.06700
C647        C  0.45714980  0.85785207  0.94280820    -0.17900
C648        C  0.43768478  0.81444623  0.92908909     0.10500
S649        S  0.51102053  0.94372075  0.86833206    -0.32900
S650        S  0.41195387  0.76473689  0.95351435    -0.32900
H651        H  0.42099647  0.73670712  0.93455397     0.28500
H652        H  0.02130578  0.91806021  0.84424717     0.28500
H653        H  0.46139336  0.84726766  0.85492763     0.19100
H654        H  0.45589036  0.85885676  0.96736122     0.19100
C655        C  0.12166002  0.55248941  0.94074615    -0.06700
C656        C  0.13325023  0.59147048  0.92317617    -0.17900
C657        C  0.17481366  0.61377914  0.90702746     0.10500
C658        C  0.20656419  0.59745208  0.90894663    -0.06700
C659        C  0.19685340  0.56137927  0.92922821    -0.17900
C660        C  0.15544492  0.53947147  0.94547552     0.10500
S661        S  0.18226425  0.65958278  0.88206808    -0.32900
S662        S  0.14712599  0.49430651  0.97146245    -0.32900
H663        H  0.11450091  0.49732142  0.98971354     0.28500
H664        H  0.19055771  0.64038415  0.85613012     0.28500
H665        H  0.10797108  0.60210755  0.91966421     0.19100
H666        H  0.22135612  0.54952907  0.93210560     0.19100
C667        C  0.43401615  0.58755822  0.89472203    -0.06700
C668        C  0.40963725  0.55213234  0.91580660    -0.17900
C669        C  0.43029857  0.52973598  0.93051105     0.10500
C670        C  0.47695504  0.54340367  0.92468702    -0.06700
C671        C  0.50189524  0.57966390  0.90448065    -0.17900
C672        C  0.48104053  0.60139745  0.88917678     0.10500
S673        S  0.39628822  0.48285403  0.95612130    -0.32900
S674        S  0.51555953  0.64362654  0.86104599    -0.32900
H675        H  0.48064934  0.62497192  0.83813755     0.28500
H676        H  0.35447207  0.48301808  0.95270481     0.28500
H677        H  0.37391533  0.54146030  0.92047801     0.19100
H678        H  0.53689807  0.58915654  0.89886234     0.19100
C679        C  0.26822652  0.72944536  0.76884287    -0.06700
C680        C  0.29418901  0.77224395  0.75487181    -0.17900
C681        C  0.27250093  0.79468700  0.74147521     0.10500
C682        C  0.22346021  0.77448294  0.74309303    -0.06700
C683        C  0.19794860  0.72965721  0.75514496    -0.17900
C684        C  0.21965210  0.70741280  0.76810384     0.10500
S685        S  0.30828062  0.84878107  0.72236305    -0.32900
S686        S  0.18321773  0.65105632  0.78400449    -0.32900
H687        H  0.21342763  0.63435214  0.77877807     0.28500
H688        H  0.35155144  0.85351079  0.72990874     0.28500
H689        H  0.33160387  0.78838821  0.75504022     0.19100
H690        H  0.16066236  0.71036831  0.75416586     0.19100
C691        C  0.07587799  0.78270231  0.73384606    -0.06700
C692        C  0.06523062  0.80832137  0.75376386    -0.17900
C693        C  0.02208941  0.78839838  0.76794780     0.10500
C694        C  0.48772339  0.73989989  0.76009387    -0.06700
C695        C  0.49656243  0.71735035  0.73662947    -0.17900
C696        C  0.04096863  0.73752807  0.72577734     0.10500
S697        S  0.01247379  0.82367879  0.79429217    -0.32900
S698        S  0.05243433  0.70398866  0.69905020    -0.32900
H699        H  0.00643498  0.66748643  0.69595327     0.28500
H700        H  0.46276053  0.79704778  0.79055627     0.28500
H701        H  0.09155442  0.84310120  0.75977271     0.19100
H702        H  0.47102923  0.68199795  0.73123837     0.19100
C703        C  0.21420649  0.91904333  0.74128033    -0.06700
C704        C  0.19629050  0.92358776  0.76893561    -0.17900
C705        C  0.21695714  0.96551117  0.78502228     0.10500
C706        C  0.25636227  0.50293220  0.77251898    -0.06700
C707        C  0.27219101  0.49867575  0.74378484    -0.17900
C708        C  0.25279241  0.95798120  0.72882049     0.10500
S709        S  0.19123233  0.96885489  0.82028508    -0.32900
S710        S  0.27938549  0.95564592  0.69387030    -0.32900
H711        H  0.23944651  0.91847425  0.68096633     0.28500
H712        H  0.15707267  0.42068991  0.82174725     0.28500
H713        H  0.16746981  0.89340700  0.77877541     0.19100
H714        H  0.30204513  0.52805120  0.73397241     0.19100
O715        O  0.92911133  0.24934427  0.87107476    -0.79100
C716        C  0.90703895  0.11215116  0.87859280     0.81900
O717        O  0.90644195  0.19047788  0.76727829    -0.80200
O718        O  0.78257730  0.04931240  0.81810094    -0.81700
O719        O  0.76298744  0.15641184  0.87859855    -0.81500
O720        O  0.86447192  0.25250462  0.87493649    -0.80100
Zn721      Zn  0.91209393  0.19398845  0.84538748     1.55700
O722        O  0.76163631  0.09004562  0.88200241    -0.81500
Cd723      Cd  0.81773418  0.19541321  0.85040401     1.59700
Cd724      Cd  0.84111764  0.15661595  0.78776744     1.59600
O725        O  0.79197994  0.21619976  0.81510755    -0.81500
O726        O  0.84687119  0.16118380  0.83383517    -1.92000
Cd727      Cd  0.81430516  0.09862762  0.85245556     1.59900
O728        O  0.80653066  0.18975210  0.77234196    -0.81500
O729        O  0.86304155  0.08733406  0.87507273    -0.80100
C730        C  0.94650589  0.21524266  0.77967692     0.82400
C731        C  0.90737430  0.26858920  0.88057008     0.82100
O732        O  0.92922604  0.15308131  0.86858039    -0.79100
C733        C  0.74501434  0.11567508  0.88869313     0.82900
O734        O  0.95217874  0.21863211  0.80859768    -0.79200
C735        C  0.78980294  0.21116990  0.78620162     0.83000
C736        C  0.78094216  0.04994081  0.78890552     0.83300
O737        O  0.80234808  0.08754899  0.77400568    -0.81600
C738        C  0.69667412  0.30103999  0.73212777     0.85900
C739        C  0.64537149  0.28076576  0.74068926    -0.54400
C740        C  0.62443832  0.30272631  0.72801685     0.08800
C741        C  0.65698689  0.34451474  0.70836844     0.19700
C742        C  0.69605348  0.30191447  0.69719650    -0.55100
C743        C  0.67526234  0.32410132  0.68441081     0.08900
C744        C  0.71897610  0.35126733  0.74239890    -0.54600
C745        C  0.69907318  0.37437762  0.72990589     0.09500
H746        H  0.62642022  0.25275711  0.75637333     0.14000
H747        H  0.64011934  0.36283242  0.69835918    -0.00300
H748        H  0.70732353  0.28252516  0.68367525     0.14300
H749        H  0.74739270  0.36705308  0.75901347     0.14100
C750        C  0.99913805  0.44743021  0.94011648     0.85900
C751        C  0.55081123  0.47235119  0.93962007    -0.54400
C752        C  0.56967189  0.01897246  0.94718507     0.08800
C753        C  0.53433322  0.03027978  0.96116263     0.19700
C754        C  0.99166060  0.45173022  0.97443802    -0.55100
C755        C  0.50941991  0.99301125  0.98570785     0.08900
C756        C  0.98026898  0.47531769  0.92427982    -0.54600
C757        C  0.99658055  0.02018386  0.93364947     0.09500
H758        H  0.57114476  0.45878717  0.92986572     0.14000
H759        H  0.54963930  0.06602178  0.96986816    -0.00300
H760        H  0.97193214  0.42339754  0.98972179     0.14300
H761        H  0.95249153  0.46062960  0.90713973     0.14100
O762        O  0.97955591  0.38931782  0.46498276    -0.79100
C763        C  0.59317942  0.03031028  0.44973455     0.81900
O764        O  0.51561987  0.44680830  0.56656186    -0.80200
O765        O  0.54564620  0.09105674  0.52024663    -0.81700
O766        O  0.91633156  0.99040001  0.44922850    -0.81500
O767        O  0.91544178  0.39208465  0.45626179    -0.80100
Zn768      Zn  0.52168870  0.44965933  0.48851512     1.55700
O769        O  0.98010340  0.05842385  0.45735728    -0.81500
Cd770      Cd  0.92767745  0.44960064  0.48139612     1.59700
Cd771      Cd  0.98359409  0.47967407  0.54731449     1.59600
O772        O  0.87727897  0.42793234  0.51425759    -0.81500
O773        O  0.99019388  0.47988375  0.50146137    -1.92000
Cd774      Cd  0.52284557  0.04593211  0.48358664     1.59900
O775        O  0.91375639  0.44797670  0.55943145    -0.81500
O776        O  0.57757448  0.05661004  0.45662541    -0.80100
C777        C  0.54039063  0.43200514  0.55495836     0.82400
C778        C  0.93922908  0.37252811  0.45267880     0.82100
O779        O  0.57470142  0.98972114  0.46022539    -0.79100
C780        C  0.93998497  0.03375975  0.44536107     0.82900
O781        O  0.54610093  0.43246200  0.52612096    -0.79200
C782        C  0.87634223  0.43013411  0.54329104     0.83000
C783        C  0.53911738  0.08600419  0.54897741     0.83300
O784        O  0.51671387  0.04670126  0.56148305    -0.81600
C785        C  0.77348404  0.11773252  0.39189895     0.85900
C786        C  0.80303159  0.16372469  0.40887890    -0.54400
C787        C  0.84737297  0.18964816  0.39894988     0.08800
C788        C  0.85954559  0.16576300  0.37365573     0.19700
C789        C  0.77799064  0.12983197  0.35804202    -0.55100
C790        C  0.82248790  0.15505819  0.34823824     0.08900
C791        C  0.80151056  0.09346643  0.39639504    -0.54600
C792        C  0.84649213  0.11819105  0.38730900     0.09500
H793        H  0.78932313  0.17594858  0.42651080     0.14000
H794        H  0.89581323  0.18642347  0.36579205    -0.00300
H795        H  0.74818886  0.12098256  0.34317614     0.14300
H796        H  0.78954387  0.06197733  0.40916125     0.14100
C797        C  0.62410128  0.26565466  0.60699953     0.85900
C798        C  0.67136910  0.29329552  0.59199812    -0.54400
C799        C  0.69773013  0.33730054  0.60223466     0.08800
C800        C  0.67335305  0.35113829  0.62633566     0.19700
C801        C  0.63427847  0.27066393  0.64140285    -0.55100
C802        C  0.65959829  0.31486838  0.65184920     0.08900
C803        C  0.60127863  0.29491172  0.60079518    -0.54600
C804        C  0.62669391  0.33955878  0.61063194     0.09500
H805        H  0.68330781  0.27902750  0.57453731     0.14000
H806        H  0.69449968  0.38710919  0.63463245    -0.00300
H807        H  0.62370243  0.24128367  0.65620651     0.14300
H808        H  0.56909532  0.28332563  0.58822240     0.14100
O809        O  0.75090031  0.42016051  0.12301001    -0.79100
C810        C  0.61457256  0.40197328  0.11720217     0.81900
O811        O  0.69640211  0.41978173  0.22683529    -0.80200
O812        O  0.55347493  0.28746853  0.18268079    -0.81700
O813        O  0.65621114  0.25793052  0.12465772    -0.81500
O814        O  0.75604414  0.35707934  0.12733621    -0.80100
Zn815      Zn  0.69856423  0.40904401  0.14945999     1.55700
O816        O  0.59107265  0.25991317  0.11916655    -0.81500
Cd817      Cd  0.69803249  0.31434413  0.15258525     1.59700
Cd818      Cd  0.66389005  0.35135731  0.21134340     1.59600
O819        O  0.71926206  0.29382047  0.19133811    -0.81500
O820        O  0.66544367  0.34737217  0.16533005    -1.92000
Cd821      Cd  0.60107731  0.31395604  0.14749994     1.59900
O822        O  0.69899040  0.32114227  0.23115038    -0.81500
O823        O  0.58823037  0.35931894  0.12266491    -0.80100
C824        C  0.72035625  0.45668266  0.21173869     0.82400
C825        C  0.77076262  0.39751081  0.11726402     0.82100
O826        O  0.65673980  0.42408585  0.12592155    -0.79100
C827        C  0.61566410  0.24197266  0.11292648     0.82900
O828        O  0.72529376  0.45541041  0.18308843    -0.79200
C829        C  0.71776240  0.29965296  0.22004347     0.83000
C830        C  0.55627028  0.29212156  0.21178078     0.83300
O831        O  0.59519202  0.31576014  0.22588082    -0.81600
C832        C  0.95083486  0.49209846  0.05960261     0.85900
C833        C  0.97497804  0.04292975  0.06393687    -0.54400
C834        C  0.52285381  0.06341132  0.05529316     0.08800
C835        C  0.53596340  0.02895396  0.04201360     0.19700
C836        C  0.95533451  0.48513827  0.02530133    -0.55100
C837        C  0.49907277  0.00198518  0.01695973     0.08900
C838        C  0.98033660  0.47466272  0.07504295    -0.54600
C839        C  0.52317188  0.49292870  0.06767365     0.09500
H840        H  0.96025637  0.06151841  0.07470399     0.14000
H841        H  0.57182562  0.04446614  0.03351846    -0.00300
H842        H  0.92685356  0.46310980  0.01014091     0.14300
H843        H  0.96668268  0.44704740  0.09168641     0.14100
C844        C  0.80634264  0.20846968  0.27614317     0.85900
C845        C  0.77916062  0.15886804  0.26360966    -0.54400
C846        C  0.79804189  0.13219781  0.27031053     0.08800
C847        C  0.84378374  0.15807467  0.28918119     0.19700
C848        C  0.81204673  0.20306124  0.31038387    -0.55100
C849        C  0.83107573  0.17650693  0.31757046     0.08900
C850        C  0.85461655  0.22660778  0.26271643    -0.54600
C851        C  0.87467955  0.20110551  0.26980651     0.09500
H852        H  0.74839447  0.14605148  0.24909480     0.14000
H853        H  0.86006546  0.13721116  0.29453625    -0.00300
H854        H  0.79788444  0.21549691  0.32758798     0.14300
H855        H  0.87125815  0.25612816  0.24777153     0.14100
C856        C  0.90247973  0.46940463  0.07360214    -0.06700
C857        C  0.86172061  0.44300917  0.05572970    -0.17900
C858        C  0.81794726  0.41877463  0.06903971     0.10500
C859        C  0.81450405  0.42082466  0.10099718    -0.06700
C860        C  0.85406952  0.44835749  0.11872356    -0.17900
C861        C  0.89770920  0.47279445  0.10567304     0.10500
S862        S  0.76845965  0.38660656  0.04368587    -0.32900
S863        S  0.94644544  0.50828150  0.13091994    -0.32900
H864        H  0.92473460  0.48851399  0.15867751     0.28500
H865        H  0.73338830  0.36793157  0.06547456     0.28500
H866        H  0.86289068  0.44062924  0.03124720     0.19100
H867        H  0.85053445  0.45091541  0.14312883     0.19100
C868        C  0.55459308  0.11351649  0.06237653    -0.06700
C869        C  0.53651149  0.14297798  0.05869752    -0.17900
C870        C  0.55672490  0.18602462  0.07330795     0.10500
C871        C  0.59641069  0.20049696  0.09247330    -0.06700
C872        C  0.61768509  0.17356675  0.09298975    -0.17900
C873        C  0.59778424  0.13078533  0.07791889     0.10500
S874        S  0.53060781  0.22115364  0.06725217    -0.32900
S875        S  0.62715109  0.09838281  0.08080355    -0.32900
H876        H  0.67012341  0.13457984  0.09145896     0.28500
H877        H  0.49915122  0.19433160  0.04383190     0.28500
H878        H  0.00111035  0.13077412  0.04455800     0.19100
H879        H  0.64903184  0.18495782  0.10657362     0.19100
C880        C  0.55399792  0.47701414  0.07980864    -0.06700
C881        C  0.56839809  0.45435944  0.05983700    -0.17900
C882        C  0.58934526  0.43015270  0.07114490     0.10500
C883        C  0.59515618  0.42806843  0.10303854    -0.06700
C884        C  0.58281345  0.45246273  0.12277799    -0.17900
C885        C  0.56252633  0.47702501  0.11162160     0.10500
S886        S  0.60647314  0.40163884  0.04402348    -0.32900
S887        S  0.55306762  0.00976617  0.13875715    -0.32900
H888        H  0.54889180  0.03959018  0.11824659     0.28500
H889        H  0.64323654  0.40438835  0.06182080     0.28500
H890        H  0.56143336  0.45382606  0.03548242     0.19100
H891        H  0.58842815  0.45177759  0.14725022     0.19100
C892        C  0.73772687  0.27967486  0.24090814    -0.06700
C893        C  0.78478983  0.30543353  0.24921687    -0.17900
C894        C  0.80711780  0.28493125  0.26429112     0.10500
C895        C  0.78266158  0.23657830  0.26891282    -0.06700
C896        C  0.73397776  0.21311904  0.26478900    -0.18500
C897        C  0.71155271  0.23379029  0.25046834     0.10500
S898        S  0.86546790  0.32307786  0.27820986    -0.32900
S899        S  0.64999208  0.19875805  0.24309933    -0.32900
H900        H  0.64038145  0.23473993  0.24382755     0.28500
H901        H  0.86305238  0.29570542  0.30319883     0.28500
H902        H  0.80439994  0.34161054  0.24357534     0.19100
H903        H  0.71296927  0.17769329  0.27173614     0.19100
C904        C  0.74266254  0.50244364  0.22720665    -0.06700
C905        C  0.75535758  0.50655480  0.25844953    -0.17900
C906        C  0.76850457  0.04579371  0.27293963     0.10500
C907        C  0.77804959  0.08548018  0.25625743    -0.06700
C908        C  0.76507143  0.08067810  0.22515275    -0.17900
C909        C  0.74228901  0.03797323  0.21061512     0.10500
S910        S  0.78050868  0.04888373  0.31346195    -0.32900
S911        S  0.72271497  0.03716329  0.17170775    -0.32900
H912        H  0.68873985  0.50526467  0.17612121     0.28500
H913        H  0.76899384  0.00292013  0.31727099     0.28500
H914        H  0.74796723  0.47596591  0.27103224     0.19100
H915        H  0.77183429  0.11068164  0.21200574     0.19100
C916        C  0.92155109  0.21514599  0.25836260    -0.06700
C917        C  0.95982962  0.25287842  0.27242135    -0.17900
C918        C  0.00284472  0.27656642  0.25797145     0.10500
C919        C  0.51266249  0.26884409  0.22942864    -0.06700
C920        C  0.97025915  0.22289049  0.21538909    -0.17900
C921        C  0.92744049  0.19947934  0.22988182     0.10500
S922        S  0.54461480  0.34754166  0.26724365    -0.32900
S923        S  0.88069893  0.15132594  0.21015624    -0.32900
H924        H  0.86862278  0.12337869  0.23622995     0.28500
H925        H  0.55730010  0.36530465  0.23754573     0.28500
H926        H  0.95526411  0.26594888  0.29390308     0.19100
H927        H  0.97364303  0.21065878  0.19323763     0.19100
C928        C  0.63464255  0.04829045  0.42994611    -0.06700
C929        C  0.65422647  0.09333756  0.41878897    -0.17900
C930        C  0.69694925  0.11491368  0.40401184     0.10500
C931        C  0.72288901  0.09223537  0.40212798    -0.06700
C932        C  0.70050556  0.04534840  0.40984686    -0.17900
C933        C  0.65666040  0.02302338  0.42291258     0.10500
S934        S  0.71744630  0.17135118  0.38776773    -0.32900
S935        S  0.63259914  0.46345121  0.43125868    -0.32900
H936        H  0.58957694  0.45203583  0.41764652     0.28500
H937        H  0.68050609  0.17699531  0.39689632     0.28500
H938        H  0.63628409  0.11212835  0.42200160     0.19100
H939        H  0.71609883  0.02486907  0.40506428     0.19100
C940        C  0.91912564  0.32844281  0.43480411    -0.06700
C941        C  0.93878324  0.30022924  0.43859031    -0.17900
C942        C  0.91802323  0.25590523  0.42549066     0.10500
C943        C  0.87614768  0.23871123  0.40864640    -0.06700
C944        C  0.85798175  0.26763966  0.40332774    -0.17900
C945        C  0.87927521  0.31223356  0.41545138     0.10500
S946        S  0.94382692  0.22079549  0.43185076    -0.32900
S947        S  0.34848020  0.34633647  0.40741606    -0.32900
H948        H  0.39036206  0.38627335  0.40016307     0.28500
H949        H  0.98307544  0.25353991  0.44849861     0.28500
H950        H  0.96966643  0.31224138  0.45277310     0.19100
H951        H  0.82645877  0.25510203  0.38965182     0.19100
C952        C  0.87952278  0.10473405  0.39984710    -0.06700
C953        C  0.88408942  0.10535333  0.43184355    -0.17900
C954        C  0.90266599  0.08156255  0.44673650     0.10500
C955        C  0.91865873  0.05730218  0.42953964    -0.06700
C956        C  0.91570688  0.05757413  0.39745339    -0.17900
C957        C  0.89629658  0.08110666  0.38243683     0.10500
S958        S  0.90225976  0.08109042  0.48796168    -0.32900
S959        S  0.89212176  0.07812599  0.34133562    -0.32900
H960        H  0.89420611  0.12045107  0.33769412     0.28500
H961        H  0.89222921  0.03550762  0.49128344     0.28500
H962        H  0.86991357  0.12195140  0.44550787     0.19100
H963        H  0.92831648  0.03927536  0.38410542     0.19100
C964        C  0.83051245  0.41084703  0.55862342    -0.06700
C965        C  0.82821477  0.40275276  0.59037860    -0.17900
C966        C  0.78571443  0.38080457  0.60546165     0.10500
C967        C  0.74419134  0.36732713  0.58899625    -0.06700
C968        C  0.74632912  0.37660443  0.55762002    -0.17900
C969        C  0.78863440  0.39885077  0.54230791     0.10500
S970        S  0.78607421  0.36679855  0.64502114    -0.32900
S971        S  0.78750517  0.41168117  0.50212929    -0.32900
H972        H  0.73977267  0.39575703  0.49921257     0.28500
H973        H  0.75160395  0.32059036  0.64054815     0.28500
H974        H  0.85950577  0.41155043  0.60341936     0.19100
H975        H  0.71420687  0.36550758  0.54498088     0.19100
C976        C  0.55639982  0.12741902  0.56800722    -0.06700
C977        C  0.59890712  0.14480269  0.58352920    -0.17900
C978        C  0.61987545  0.18793848  0.59809930     0.10500
C979        C  0.59844181  0.21527343  0.59613170    -0.06700
C980        C  0.55362343  0.19510314  0.58276237    -0.17900
C981        C  0.53264583  0.15184189  0.56887119     0.10500
S982        S  0.67464712  0.20773738  0.61822875    -0.32900
S983        S  0.47580145  0.13021907  0.55181255    -0.32900
H984        H  0.46052964  0.08334965  0.55574366     0.28500
H985        H  0.67763188  0.16802939  0.61396171     0.28500
H986        H  0.61629367  0.12508161  0.58334441     0.19100
H987        H  0.53388166  0.21224067  0.58273826     0.19100
C988        C  0.56429968  0.41456774  0.57505826    -0.06700
C989        C  0.61164208  0.43128380  0.57056744    -0.17900
C990        C  0.63490480  0.41127775  0.58514203     0.10500
C991        C  0.60975402  0.37206759  0.60357756    -0.06700
C992        C  0.56325667  0.35779288  0.60996760    -0.17900
C993        C  0.54064849  0.37906405  0.59641766     0.10500
S994        S  0.69569864  0.43465980  0.57824678    -0.32900
S995        S  0.48032120  0.35603059  0.60453428    -0.32900
H996        H  0.47933415  0.89029423  0.60670697     0.28500
H997        H  0.70247240  0.47232980  0.56047587     0.28500
H998        H  0.63007057  0.45935142  0.55478021     0.19100
H999        H  0.54363898  0.32814766  0.62440363     0.19100
C1000       C  0.93320359  0.31202430  0.89723567    -0.06700
C1001       C  0.96261545  0.35099057  0.88047629    -0.17900
C1002       C  0.98475300  0.39464282  0.89394939     0.10500
C1003       C  0.97797296  0.39958642  0.92554556    -0.06700
C1004       C  0.94933989  0.35943487  0.94235093    -0.17900
C1005       C  0.92690777  0.31603020  0.92851221     0.10500
S1006       S  0.01945092  0.44343619  0.86957023    -0.32900
S1007       S  0.89000302  0.26714672  0.95187280    -0.32900
H1008       H  0.89473730  0.23443781  0.93496838     0.28500
H1009       H  0.51232467  0.41407212  0.84490329     0.28500
H1010       H  0.96664505  0.34721670  0.85630234     0.19100
H1011       H  0.94293970  0.36076544  0.96623670     0.19100
C1012       C  0.61907829  0.05224501  0.94069875    -0.06700
C1013       C  0.62891503  0.08954143  0.92182228    -0.17900
C1014       C  0.66991903  0.11161402  0.90512535     0.10500
C1015       C  0.70310600  0.09721192  0.90809866    -0.06700
C1016       C  0.69501826  0.06287109  0.92949396    -0.17900
C1017       C  0.65387205  0.04079158  0.94600341     0.10500
S1018       S  0.67457962  0.15391773  0.87790554    -0.32900
S1019       S  0.64688482  0.99703306  0.97283257    -0.32900
H1020       H  0.61353433  0.99942645  0.99066781     0.28500
H1021       H  0.68522749  0.13393101  0.85353972     0.28500
H1022       H  0.60256779  0.09864093  0.91767738     0.19100
H1023       H  0.72052104  0.05241023  0.93297071     0.19100
C1024       C  0.93271424  0.09250189  0.89458655    -0.06700
C1025       C  0.90851118  0.05653865  0.91530393    -0.17900
C1026       C  0.92949794  0.03423082  0.92957817     0.10500
C1027       C  0.97617465  0.04836897  0.92353875    -0.06700
C1028       C  0.00115190  0.08563440  0.90406077    -0.17900
C1029       C  0.98001515  0.10739006  0.88920225     0.10500
S1030       S  0.89568263  0.98654701  0.95463924    -0.32900
S1031       S  0.01450085  0.15091945  0.86173076    -0.32900
H1032       H  0.98023028  0.13225236  0.83841480     0.28500
H1033       H  0.85709439  0.99252044  0.95642244     0.28500
H1034       H  0.87255291  0.04508663  0.91981420     0.19100
H1035       H  0.03644717  0.09598162  0.89862259     0.19100
C1036       C  0.76559144  0.22993759  0.76873156    -0.06700
C1037       C  0.79145821  0.27186595  0.75383639    -0.17900
C1038       C  0.77004761  0.29504826  0.74138669     0.10500
C1039       C  0.72135508  0.27612277  0.74443233    -0.06700
C1040       C  0.69573348  0.23218006  0.75773218    -0.17900
C1041       C  0.71722963  0.20936972  0.76997950     0.10500
S1042       S  0.80593638  0.34850628  0.72169733    -0.32900
S1043       S  0.68081954  0.15404308  0.78726832    -0.32900
H1044       H  0.71011765  0.13621350  0.78219018     0.28500
H1045       H  0.84906377  0.35561300  0.73227864     0.28500
H1046       H  0.82868862  0.28692107  0.75267304     0.19100
H1047       H  0.65849338  0.21389710  0.75827237     0.19100
C1048       C  0.57511377  0.28639263  0.73452820    -0.06700
C1049       C  0.56491245  0.31070084  0.75586000    -0.17900
C1050       C  0.52202456  0.29004575  0.77034900     0.10500
C1051       C  0.98813286  0.24074901  0.76059144    -0.06700
C1052       C  0.99651578  0.21713221  0.73760419    -0.17900
C1053       C  0.53990390  0.24193723  0.72539341     0.10500
S1054       S  0.51360583  0.32357249  0.79887688    -0.32900
S1055       S  0.55110680  0.20945743  0.69768054    -0.32900
H1056       H  0.50514897  0.17295237  0.69438546     0.28500
H1057       H  0.96630332  0.30090298  0.79026042     0.28500
H1058       H  0.59140770  0.34482136  0.76281419     0.19100
H1059       H  0.97002443  0.18219964  0.73201576     0.19100
C1060       C  0.71512267  0.42218606  0.73987130    -0.06700
C1061       C  0.69457242  0.42864113  0.76559694    -0.17900
C1062       C  0.71492356  0.47106161  0.78102483     0.10500
C1063       C  0.75459349  0.00550346  0.77183076    -0.06700
C1064       C  0.77126930  0.00098151  0.74352296    -0.17900
C1065       C  0.75642976  0.45969249  0.72882526     0.10500
S1066       S  0.68563981  0.47776760  0.81327408    -0.32900
S1067       S  0.78589072  0.45478682  0.69622132    -0.32900
H1068       H  0.74583235  0.42008586  0.68145113     0.28500
H1069       H  0.65113126  0.92518248  0.81863443     0.28500
H1070       H  0.66395580  0.39962381  0.77471736     0.19100
H1071       H  0.80158421  0.03017371  0.73397030     0.19100
O1072       O  0.92970444  0.74920768  0.87241084    -0.79100
C1073       C  0.90910694  0.61123460  0.87950328     0.81900
O1074       O  0.90725355  0.69233343  0.76894058    -0.80200
O1075       O  0.78494945  0.54957324  0.81794071    -0.81700
O1076       O  0.76398150  0.65360462  0.88067375    -0.81500
O1077       O  0.86455054  0.75170601  0.87557117    -0.80100
Zn1078     Zn  0.91329317  0.69359134  0.84703373     1.55700
O1079       O  0.76270498  0.58710993  0.88301628    -0.81500
Cd1080     Cd  0.81751094  0.69370855  0.85185559     1.59700
Cd1081     Cd  0.84227112  0.65758172  0.78924023     1.59600
O1082       O  0.78934670  0.71329641  0.81685896    -0.81500
O1083       O  0.84789393  0.66063171  0.83531209    -1.92000
Cd1084     Cd  0.81599202  0.59745416  0.85323046     1.59900
O1085       O  0.80669132  0.68979485  0.77395772    -0.81500
O1086       O  0.86521450  0.58609087  0.87539053    -0.80100
C1087       C  0.94740783  0.71632641  0.78128652     0.82400
C1088       C  0.90756190  0.76838970  0.88129750     0.82100
O1089       O  0.93103783  0.65260697  0.87018197    -0.79100
C1090       C  0.74602660  0.61252586  0.89019059     0.82900
O1091       O  0.95344224  0.71886490  0.81019547    -0.79200
C1092       C  0.78820184  0.70948836  0.78785244     0.83000
C1093       C  0.78390023  0.55137159  0.78875044     0.83300
O1094       O  0.80524058  0.58938860  0.77439341    -0.81600
C1095       C  0.69626235  0.79926349  0.73060811     0.85900
C1096       C  0.64436953  0.77802693  0.73768890    -0.54400
C1097       C  0.62384925  0.80036841  0.72506772     0.08800
C1098       C  0.65735408  0.84363955  0.70695430     0.19700
C1099       C  0.69795406  0.80256697  0.69568224    -0.55100
C1100       C  0.67754358  0.82529179  0.68293662     0.08900
C1101       C  0.71748901  0.84884095  0.74217386    -0.54600
C1102       C  0.69793674  0.87239669  0.72979309     0.09500
H1103       H  0.62456925  0.74910805  0.75252285     0.14000
H1104       H  0.64080312  0.86232980  0.69706131    -0.00300
H1105       H  0.71019369  0.78414248  0.68201606     0.14300
H1106       H  0.74507816  0.86387434  0.75940288     0.14100
C1107       C  0.99696309  0.94841368  0.93951410     0.85900
C1108       C  0.55008365  0.97502232  0.93660032    -0.54400
C1109       C  0.57016970  0.51697008  0.94884983     0.08800
C1110       C  0.53435171  0.52902953  0.96123499     0.19700
C1111       C  0.98800031  0.95205914  0.97357737    -0.55100
C1112       C  0.50859481  0.49269086  0.98613003     0.08900
C1113       C  0.97869713  0.97645752  0.92303510    -0.54600
C1114       C  0.99890180  0.51925346  0.93457086     0.09500
H1115       H  0.56996573  0.96227000  0.92512968     0.14000
H1116       H  0.54941817  0.56505927  0.96929348    -0.00300
H1117       H  0.96909633  0.92353864  0.98887890     0.14300
H1118       H  0.95175547  0.96197028  0.90533473     0.14100
O1119       O  0.98254307  0.89029741  0.46414468    -0.79100
C1120       C  0.59489000  0.53140393  0.45210503     0.81900
O1121       O  0.51532394  0.94695827  0.56451222    -0.80200
O1122       O  0.54895116  0.59111607  0.52341220    -0.81700
O1123       O  0.91947308  0.49625959  0.45467419    -0.81500
O1124       O  0.91634350  0.88950702  0.45559480    -0.80100
Zn1125     Zn  0.52030116  0.94904992  0.48643558     1.55700
O1126       O  0.98727758  0.56188766  0.45869309    -0.81500
Cd1127     Cd  0.92697059  0.94763779  0.47884320     1.59700
Cd1128     Cd  0.98445727  0.97972759  0.54483505     1.59600
O1129       O  0.87748863  0.92839685  0.51223877    -0.81500
O1130       O  0.98967001  0.97966224  0.49896522    -1.92000
Cd1131     Cd  0.52541204  0.54694092  0.48664376     1.59900
O1132       O  0.91517392  0.95040434  0.55705189    -0.81500
O1133       O  0.57987127  0.55791384  0.45962488    -0.80100
C1134       C  0.53946618  0.93144518  0.55286679     0.82400
C1135       C  0.94182542  0.87172727  0.45234250     0.82100
O1136       O  0.57592226  0.49044272  0.46203739    -0.79100
C1137       C  0.94552137  0.53894269  0.44902520     0.82900
O1138       O  0.54461380  0.93128711  0.52399213    -0.79200
C1139       C  0.87749414  0.93256088  0.54122083     0.83000
C1140       C  0.54093311  0.58585658  0.55192295     0.83300
O1141       O  0.51685643  0.54650470  0.56412030    -0.81600
C1142       C  0.77398236  0.61852319  0.39289752     0.85900
C1143       C  0.80386045  0.66428771  0.41022265    -0.54400
C1144       C  0.84847119  0.68936121  0.40069684     0.08800
C1145       C  0.86065275  0.66550268  0.37568423     0.19700
C1146       C  0.77940616  0.63102991  0.35919316    -0.55100
C1147       C  0.82425034  0.65583056  0.34986544     0.08900
C1148       C  0.80104474  0.59338174  0.39733701    -0.54600
C1149       C  0.84680293  0.61802344  0.38982066     0.09500
H1150       H  0.79039180  0.67689641  0.42775871     0.14000
H1151       H  0.89716800  0.68595737  0.36827766    -0.00300
H1152       H  0.75001951  0.62299704  0.34412561     0.14300
H1153       H  0.78764480  0.56109970  0.40927990     0.14100
C1154       C  0.62796808  0.76822668  0.60514497     0.85900
C1155       C  0.67488257  0.79733771  0.58992786    -0.54400
C1156       C  0.70010450  0.84133278  0.60049271     0.08800
C1157       C  0.67484573  0.85350819  0.62495217     0.19700
C1158       C  0.63833457  0.77295004  0.63942331    -0.55100
C1159       C  0.66248042  0.81690418  0.65019726     0.08900
C1160       C  0.60360877  0.79606317  0.59920246    -0.54600
C1161       C  0.62772889  0.84071681  0.60924509     0.09500
H1162       H  0.68740820  0.78413951  0.57213889     0.14000
H1163       H  0.69500323  0.88938146  0.63347970    -0.00300
H1164       H  0.62841032  0.74342443  0.65401216     0.14300
H1165       H  0.57169424  0.78357680  0.58608474     0.14100
O1166       O  0.74809142  0.91724975  0.12452001    -0.79100
C1167       C  0.60997621  0.89664820  0.11729257     0.81900
O1168       O  0.69023733  0.91542464  0.22693814    -0.80200
O1169       O  0.55045495  0.78091346  0.18391281    -0.81700
O1170       O  0.65567392  0.75640083  0.12505017    -0.81500
O1171       O  0.75473216  0.85511004  0.12937178    -0.80100
Zn1172     Zn  0.69433329  0.90478537  0.14979275     1.55700
O1173       O  0.58972855  0.75704939  0.11967565    -0.81500
Cd1174     Cd  0.69613209  0.81165338  0.15371520     1.59700
Cd1175     Cd  0.66091457  0.84699136  0.21210545     1.59600
O1176       O  0.71673784  0.79020735  0.19219247    -0.81500
O1177       O  0.66224036  0.84345173  0.16614597    -1.92000
Cd1178     Cd  0.59774016  0.80958075  0.14856235     1.59900
O1179       O  0.69898541  0.81984577  0.23190003    -0.81500
O1180       O  0.58336005  0.85445580  0.12400494    -0.80100
C1181       C  0.71303421  0.95241321  0.21167506     0.82400
C1182       C  0.76890948  0.89539675  0.11925759     0.82100
O1183       O  0.65251527  0.91852106  0.12512463    -0.79100
C1184       C  0.61523560  0.74023690  0.11316761     0.82900
O1185       O  0.71856341  0.95128568  0.18310915    -0.79200
C1186       C  0.71679021  0.79744358  0.22082121     0.83000
C1187       C  0.55346544  0.78395028  0.21311714     0.83300
O1188       O  0.59253269  0.80772277  0.22703083    -0.81600
C1189       C  0.94744992  0.99073395  0.05980889     0.85900
C1190       C  0.97796028  0.54426314  0.06395727    -0.54400
C1191       C  0.52269689  0.56331291  0.05545792     0.08800
C1192       C  0.53528612  0.52869357  0.04213010     0.19700
C1193       C  0.95138851  0.98377169  0.02539919    -0.55100
C1194       C  0.49841592  0.50247576  0.01703881     0.08900
C1195       C  0.97685933  0.97306165  0.07503555    -0.54600
C1196       C  0.52427921  0.99324860  0.06766527     0.09500
H1197       H  0.96289828  0.56238227  0.07494059     0.14000
H1198       H  0.57120903  0.54399105  0.03374839    -0.00300
H1199       H  0.92263674  0.96260160  0.01018491     0.14300
H1200       H  0.96329587  0.94585014  0.09197151     0.14100
C1201       C  0.80862373  0.70985882  0.27790976     0.85900
C1202       C  0.78449741  0.66075870  0.26453983    -0.54400
C1203       C  0.80521338  0.63580722  0.27145279     0.08800
C1204       C  0.84974130  0.66290219  0.29137601     0.19700
C1205       C  0.81303020  0.70358040  0.31215814    -0.55100
C1206       C  0.83377588  0.67860780  0.31958155     0.08900
C1207       C  0.85785703  0.73096588  0.26568524    -0.54600
C1208       C  0.88003376  0.70746711  0.27301196     0.09500
H1209       H  0.75438094  0.64698013  0.24935640     0.14000
H1210       H  0.86753206  0.64353099  0.29704607    -0.00300
H1211       H  0.79673282  0.71407653  0.32909034     0.14300
H1212       H  0.87368744  0.76117320  0.25128417     0.14100
C1213       C  0.89940860  0.96823252  0.07427392    -0.06700
C1214       C  0.85857017  0.93941317  0.05711143    -0.17900
C1215       C  0.81529458  0.91482598  0.07096525     0.10500
C1216       C  0.81235886  0.91904492  0.10275323    -0.06700
C1217       C  0.85189378  0.94881878  0.11979691    -0.17900
C1218       C  0.89511829  0.97363084  0.10618935     0.10500
S1219       S  0.76567754  0.87921098  0.04646718    -0.32900
S1220       S  0.94414843  0.01107974  0.13066786    -0.32900
H1221       H  0.91920189  0.00934580  0.15670811     0.28500
H1222       H  0.73148278  0.85901038  0.06874893     0.28500
H1223       H  0.85933196  0.93484256  0.03282705     0.19100
H1224       H  0.84874338  0.95222934  0.14414850     0.19100
C1225       C  0.55513435  0.61305146  0.06230822    -0.06700
C1226       C  0.53835322  0.64332832  0.05751456    -0.17900
C1227       C  0.55867517  0.68627182  0.07214829     0.10500
C1228       C  0.59701398  0.69956730  0.09233264    -0.06700
C1229       C  0.61736679  0.67188212  0.09388490    -0.17900
C1230       C  0.59735433  0.62916145  0.07886631     0.10500
S1231       S  0.53486276  0.72310661  0.06468391    -0.32900
S1232       S  0.62511287  0.59533967  0.08300819    -0.32900
H1233       H  0.66571830  0.62870993  0.09816856     0.28500
H1234       H  0.49762620  0.69259101  0.04561052     0.28500
H1235       H  0.00409715  0.63271532  0.04567077     0.19100
H1236       H  0.64781871  0.68259876  0.10829645     0.19100
C1237       C  0.55462355  0.97641019  0.07935351    -0.06700
C1238       C  0.56532269  0.95048779  0.05958183    -0.17900
C1239       C  0.58359385  0.92383633  0.07098120     0.10500
C1240       C  0.59092800  0.92301892  0.10285177    -0.06700
C1241       C  0.58230577  0.95059043  0.12229087    -0.17900
C1242       C  0.56427967  0.97715010  0.11103880     0.10500
S1243       S  0.59507956  0.89077142  0.04385878    -0.32900
S1244       S  0.54748877  0.50648759  0.13950159    -0.32900
H1245       H  0.54477179  0.53756879  0.11937923     0.28500
H1246       H  0.62602820  0.88412650  0.06225949     0.28500
H1247       H  0.55720529  0.94916791  0.03534662     0.19100
H1248       H  0.58910151  0.95090487  0.14667823     0.19100
C1249       C  0.73689929  0.77757003  0.24164572    -0.06700
C1250       C  0.78283745  0.80461791  0.25212265    -0.17900
C1251       C  0.80570803  0.78479381  0.26739533     0.10500
C1252       C  0.78311756  0.73614634  0.27027176    -0.06700
C1253       C  0.73493977  0.71088680  0.26389555    -0.18500
C1254       C  0.71203370  0.73072965  0.24916193     0.10500
S1255       S  0.86242103  0.82397093  0.28342149    -0.32900
S1256       S  0.65162741  0.69377164  0.23895058    -0.32900
H1257       H  0.63944219  0.72798044  0.23957964     0.28500
H1258       H  0.85933689  0.79584247  0.30808799     0.28500
H1259       H  0.80125346  0.84127158  0.24791289     0.19100
H1260       H  0.71471304  0.67484899  0.26954594     0.19100
C1261       C  0.73378581  0.99812099  0.22692984    -0.06700
C1262       C  0.74692061  0.00269116  0.25805641    -0.17900
C1263       C  0.77722317  0.54957356  0.27358110     0.10500
C1264       C  0.78742176  0.58957590  0.25702950    -0.06700
C1265       C  0.77548290  0.58524889  0.22575993    -0.17900
C1266       C  0.75245640  0.54275956  0.21100096     0.10500
S1267       S  0.78947647  0.55235130  0.31409782    -0.32900
S1268       S  0.73371196  0.54289032  0.17200898    -0.32900
H1269       H  0.67869057  0.99810923  0.17584324     0.28500
H1270       H  0.76789872  0.50474382  0.31900433     0.28500
H1271       H  0.74007044  0.97235856  0.27075959     0.19100
H1272       H  0.78265094  0.61547080  0.21272708     0.19100
C1273       C  0.92837101  0.72504166  0.26265936    -0.06700
C1274       C  0.96153753  0.77111468  0.26925860    -0.17900
C1275       C  0.00420594  0.79355396  0.25446274     0.10500
C1276       C  0.50982443  0.75908275  0.23092991    -0.06700
C1277       C  0.98309183  0.72245838  0.22783224    -0.17900
C1278       C  0.94014053  0.70027605  0.24232664     0.10500
S1279       S  0.54717498  0.82774312  0.27727397    -0.32900
S1280       S  0.90006754  0.64193704  0.23144972    -0.32900
H1281       H  0.86814300  0.65380395  0.21972808     0.28500
H1282       H  0.55861495  0.85353331  0.25014756     0.28500
H1283       H  0.95288863  0.79063811  0.28469366     0.19100
H1284       H  0.99104576  0.70345419  0.21148612     0.19100
C1285       C  0.63606591  0.54954106  0.43207721    -0.06700
C1286       C  0.65561638  0.59474299  0.42109860    -0.17900
C1287       C  0.69784996  0.61615869  0.40569902     0.10500
C1288       C  0.72330501  0.59314736  0.40297838    -0.06700
C1289       C  0.70064635  0.54610283  0.41034630    -0.17900
C1290       C  0.65758498  0.52409394  0.42435945     0.10500
S1291       S  0.71840099  0.67276363  0.38975494    -0.32900
S1292       S  0.63103116  0.96215462  0.42917998    -0.32900
H1293       H  0.58814515  0.95138987  0.41563964     0.28500
H1294       H  0.67994281  0.67689827  0.39726108     0.28500
H1295       H  0.63810104  0.61380182  0.42495774     0.19100
H1296       H  0.71536176  0.52515777  0.40465403     0.19100
C1297       C  0.92307482  0.82760240  0.43532540    -0.06700
C1298       C  0.93594747  0.79567885  0.44502131    -0.17900
C1299       C  0.91404421  0.75089256  0.43279420     0.10500
C1300       C  0.87849584  0.73769937  0.41058915    -0.06700
C1301       C  0.86765605  0.77022512  0.39951604    -0.17900
C1302       C  0.89007656  0.81508993  0.41111461     0.10500
S1303       S  0.92945268  0.71001793  0.44698000    -0.32900
S1304       S  0.34091477  0.84076731  0.41040151    -0.32900
H1305       H  0.37956227  0.88190301  0.40057409     0.28500
H1306       H  0.96829193  0.74140979  0.46457101     0.28500
H1307       H  0.96153598  0.80507739  0.46327322     0.19100
H1308       H  0.84095506  0.76030966  0.38191921     0.19100
C1309       C  0.87905866  0.60496582  0.40484380    -0.06700
C1310       C  0.86996074  0.59020838  0.43547705    -0.17900
C1311       C  0.89143620  0.56901032  0.44995845     0.10500
C1312       C  0.92479759  0.56372869  0.43426770    -0.06700
C1313       C  0.93788753  0.58249270  0.40484335    -0.17900
C1314       C  0.91484236  0.60251675  0.38974539     0.10500
S1315       S  0.87354197  0.54821569  0.48835799    -0.32900
S1316       S  0.93150278  0.62245677  0.35122958    -0.32900
H1317       H  0.88696217  0.61089155  0.34084041     0.28500
H1318       H  0.91696760  0.55639538  0.49908779     0.28500
H1319       H  0.84450755  0.59394638  0.44819135     0.19100
H1320       H  0.96457757  0.57963176  0.39308111     0.19100
C1321       C  0.83236590  0.91541824  0.55695276    -0.06700
C1322       C  0.83030792  0.90743658  0.58870373    -0.17900
C1323       C  0.78795910  0.88609456  0.60393921     0.10500
C1324       C  0.74639764  0.87264245  0.58750180    -0.06700
C1325       C  0.74852024  0.88293003  0.55626904    -0.17900
C1326       C  0.79081956  0.90515207  0.54094635     0.10500
S1327       S  0.78856270  0.87308702  0.64371378    -0.32900
S1328       S  0.79050043  0.92084143  0.50130200    -0.32900
H1329       H  0.74252237  0.90335668  0.49798425     0.28500
H1330       H  0.75477365  0.82658036  0.63957803     0.28500
H1331       H  0.86157837  0.91568123  0.60158587     0.19100
H1332       H  0.71645514  0.87258833  0.54375561     0.19100
C1333       C  0.55892260  0.62737072  0.57080965    -0.06700
C1334       C  0.60408239  0.64754907  0.58270230    -0.17900
C1335       C  0.62594294  0.69174100  0.59567784     0.10500
C1336       C  0.60306636  0.71775207  0.59484527    -0.06700
C1337       C  0.55618662  0.69517816  0.58513549    -0.17900
C1338       C  0.53400625  0.65045658  0.57350642     0.10500
S1339       S  0.68320030  0.71406613  0.61269978    -0.32900
S1340       S  0.47407895  0.62531029  0.56162414    -0.32900
H1341       H  0.46167234  0.57928564  0.56614275     0.28500
H1342       H  0.68338710  0.67246880  0.61280138     0.28500
H1343       H  0.62265234  0.62907485  0.58101349     0.19100
H1344       H  0.53559497  0.71134003  0.58686902     0.19100
C1345       C  0.56320719  0.91387292  0.57303493    -0.06700
C1346       C  0.61125935  0.93288725  0.57035778    -0.17900
C1347       C  0.63481609  0.91319710  0.58505755     0.10500
C1348       C  0.60940966  0.87216529  0.60187720    -0.06700
C1349       C  0.56189753  0.85547902  0.60646154    -0.17900
C1350       C  0.53882668  0.87607586  0.59261817     0.10500
S1351       S  0.69639205  0.93936399  0.57999842    -0.32900
S1352       S  0.47727742  0.84930729  0.59781316    -0.32900
H1353       H  0.48656735  0.39872840  0.61371701     0.28500
H1354       H  0.70358607  0.98073607  0.56720007     0.28500
H1355       H  0.63010523  0.96243196  0.55574383     0.19100
H1356       H  0.54194622  0.82447277  0.61965105     0.19100
C1357       C  0.93282358  0.81223187  0.89765028    -0.06700
C1358       C  0.96474693  0.85069927  0.88137383    -0.17900
C1359       C  0.98578351  0.89476095  0.89433764     0.10500
C1360       C  0.97607096  0.90043714  0.92514194    -0.06700
C1361       C  0.94405747  0.86085605  0.94124967    -0.17900
C1362       C  0.92260541  0.81724665  0.92787697     0.10500
S1363       S  0.02261326  0.94315228  0.87025184    -0.32900
S1364       S  0.88185727  0.76922631  0.95043511    -0.32900
H1365       H  0.89074973  0.73667759  0.93705358     0.28500
H1366       H  0.51107560  0.92002640  0.84192761     0.28500
H1367       H  0.97143567  0.84623817  0.85784843     0.19100
H1368       H  0.93375329  0.86274561  0.96409001     0.19100
C1369       C  0.61951435  0.55006642  0.94180545    -0.06700
C1370       C  0.62848755  0.58496378  0.92094229    -0.17900
C1371       C  0.66926126  0.60594832  0.90406054     0.10500
C1372       C  0.70360418  0.59355945  0.90908639    -0.06700
C1373       C  0.69630867  0.56145857  0.93207822    -0.17900
C1374       C  0.65502697  0.54009015  0.94862808     0.10500
S1375       S  0.67214126  0.64380493  0.87386909    -0.32900
S1376       S  0.64893880  0.49954503  0.97779878    -0.32900
H1377       H  0.61568759  0.50365704  0.99457913     0.28500
H1378       H  0.68647236  0.62357997  0.85177663     0.28500
H1379       H  0.60167087  0.59277175  0.91547887     0.19100
H1380       H  0.72260259  0.55242980  0.93689588     0.19100
C1381       C  0.93481572  0.59143399  0.89551537    -0.06700
C1382       C  0.91005420  0.55426606  0.91530627    -0.17900
C1383       C  0.93103064  0.53204737  0.92974526     0.10500
C1384       C  0.97829343  0.54737967  0.92474208    -0.06700
C1385       C  0.00381841  0.58573205  0.90622928    -0.17900
C1386       C  0.98268818  0.60750114  0.89126361     0.10500
S1387       S  0.89672931  0.48343257  0.95409488    -0.32900
S1388       S  0.01817067  0.65288852  0.86521248    -0.32900
H1389       H  0.98531312  0.63506622  0.84102778     0.28500
H1390       H  0.85497297  0.48384580  0.95137702     0.28500
H1391       H  0.87376837  0.54206488  0.91914012     0.19100
H1392       H  0.03967203  0.59692479  0.90167254     0.19100
C1393       C  0.76418428  0.72842283  0.77005517    -0.06700
C1394       C  0.79036648  0.77016050  0.75493064    -0.17900
C1395       C  0.76917128  0.79280347  0.74118701     0.10500
C1396       C  0.72039101  0.77385835  0.74337270    -0.06700
C1397       C  0.69446421  0.72994962  0.75680044    -0.17900
C1398       C  0.71570651  0.70744578  0.77007439     0.10500
S1399       S  0.80534997  0.84589734  0.72117222    -0.32900
S1400       S  0.67883393  0.65169203  0.78663361    -0.32900
H1401       H  0.70827794  0.63412741  0.78118430     0.28500
H1402       H  0.84734232  0.84602165  0.72433100     0.28500
H1403       H  0.82769184  0.78555838  0.75464786     0.19100
H1404       H  0.65721550  0.71136315  0.75665936     0.19100
C1405       C  0.57427759  0.78353659  0.73101658    -0.06700
C1406       C  0.56354187  0.80767584  0.75212468    -0.17900
C1407       C  0.52075158  0.78640827  0.76675565     0.10500
C1408       C  0.98863142  0.74180235  0.76200428    -0.06700
C1409       C  0.99758500  0.71766102  0.73975685    -0.17900
C1410       C  0.53967821  0.73857734  0.72220549     0.10500
S1411       S  0.51120349  0.81983387  0.79472832    -0.32900
S1412       S  0.55157456  0.70692551  0.69415957    -0.32900
H1413       H  0.50724293  0.66735229  0.69359268     0.28500
H1414       H  0.96403984  0.80072057  0.79005875     0.28500
H1415       H  0.58975832  0.84215665  0.75888148     0.19100
H1416       H  0.97181874  0.68214981  0.73499674     0.19100
C1417       C  0.71292977  0.91962906  0.74070503    -0.06700
C1418       C  0.69474973  0.92443638  0.76819049    -0.17900
C1419       C  0.71469721  0.96682107  0.78375744     0.10500
C1420       C  0.75779084  0.50778156  0.77105876    -0.06700
C1421       C  0.77722222  0.50194715  0.74441556    -0.17900
C1422       C  0.75109208  0.95870151  0.72800850     0.10500
S1423       S  0.68851528  0.97069494  0.81864934    -0.32900
S1424       S  0.77789029  0.95611448  0.69329837    -0.32900
H1425       H  0.73714052  0.92064168  0.67987461     0.28500
H1426       H  0.64548116  0.43404796  0.81138302     0.28500
H1427       H  0.66614429  0.89425741  0.77821374     0.19100
H1428       H  0.80986026  0.52991360  0.73637847     0.19100
loop_ 
_geom_bond_atom_site_label_1 
_geom_bond_atom_site_label_2 
_geom_bond_distance 
_geom_bond_site_symmetry_2 
_ccdc_geom_bond_type 
O1           C17   1.270       .  A
O1           Zn7   1.993       .  S
C2           O18   1.273       .  A
C2           O15   1.280       .  A
C2          C310   1.486       .  S
O3           C16   1.276       .  A
O3          Cd10   2.089       .  S
O4           C22   1.278       .  A
O4          Cd13   2.084       .  S
O5           C19   1.272       .  A
O5           Cd9   2.055       .  S
O6           C17   1.271       .  A
O6           Cd9   2.053       .  S
Zn7          O18   2.011       .  S
Zn7          O20   1.998       .  S
Zn7          O12   1.940       .  S
O8           C19   1.280       .  A
O8          Cd13   2.111       .  S
Cd9          O11   2.057       .  S
Cd9          O12   1.991       .  S
Cd10         O14   2.073       .  S
Cd10         O23   2.086       .  S
Cd10         O12   2.013       .  S
O11          C21   1.272       .  A
O12         Cd13   2.000       .  S
Cd13         O15   2.093       .  S
O14          C21   1.274       .  A
C16          O20   1.271       .  A
C16         C337   1.478       .  S
C17         C286   1.458       .  S
C19         C301   1.490       .  S
C21         C322   1.464       .  S
C22          O23   1.279       .  A
C22         C349   1.492       .  S
C24          C25   1.544       .  S
C24          C30   1.533       .  S
C24          C28   1.527       .  S
C24         C325   1.538       .  S
C25          H32   1.082       .  S
C25          C26   1.362       .  D
C26          C27   1.544       .  S
C26         C334   1.485       .  S
C27          C31   1.552       .  S
C27          C29   1.548       .  S
C27          H33   1.111       .  S
C28          H34   1.086       .  S
C28          C29   1.367       .  D
C29          C88   1.486       .  S
C30          H35   1.086       .  S
C30          C31   1.363       .  D
C31         C346   1.487       .  S
C36          C42   1.532       .  S
C36          C40   1.541       .  S
C36         C751   1.529       .  S
C36         C289   1.531       .  S
C37         C750   1.525   1_455  S
C37          H44   1.086       .  S
C37         C395   1.363       .  D
C38          C39   1.552       .  S
C38         C394   1.364   1_545  D
C38         C298   1.487       .  S
C39          C41   1.545   1_545  S
C39         C757   1.544   1_455  S
C39          H45   1.111       .  S
C40          H46   1.081       .  S
C40        C1112   1.366       .  D
C41        C1111   1.364   1_455  D
C41         C123   1.479   1_466  S
C42          H47   1.087       .  S
C42         C400   1.360       .  D
C43         C753   1.546       .  S
C43         C399   1.361   1_545  D
C43         C313   1.484       .  S
O48          C64   1.277       .  A
O48        Zn768   2.040       .  S
C49          O65   1.271   1_545  A
C49          O62   1.275       .  A
C49         C214   1.491       .  S
O50          C63   1.276       .  A
O50        Cd771   2.084   1_455  S
O51          C69   1.273       .  A
O51         Cd60   2.061       .  S
O52          C66   1.275   1_565  A
O52        Cd413   2.087       .  S
O53          C64   1.275       .  A
O53         Cd56   2.072       .  S
Zn54         O67   2.028       .  S
Zn54        O762   2.044   1_455  S
Zn54        O422   2.020       .  S
Zn54        O773   1.942   1_455  S
O55          C66   1.272       .  A
O55        Cd774   2.064       .  S
Cd56         O58   2.063       .  S
Cd56        O409   2.091       .  S
Cd56         O59   1.994       .  S
Cd57         O61   2.084       .  S
Cd57        O764   2.088       .  S
Cd57       O1141   2.077       .  S
Cd57         O59   2.012       .  S
O58          C68   1.274       .  A
O59        Zn768   1.941       .  S
O59       Cd1131   1.994       .  S
Cd60         O62   2.064       .  S
Cd60        O769   2.059   1_455  S
Cd60       O1130   1.995   1_445  S
O61          C68   1.278       .  A
C63          O67   1.277       .  A
C63         C274   1.480       .  S
C64         C226   1.498       .  S
O65        Zn411   2.008       .  S
C66         C241   1.472       .  S
C68         C250   1.493       .  S
C69          O70   1.275       .  A
C69         C262   1.467       .  S
O70       Cd1128   2.078   1_445  S
C71          C72   1.538       .  S
C71          C77   1.536       .  S
C71          C75   1.525       .  S
C71         C217   1.535       .  S
C72          H79   1.086       .  S
C72          C73   1.364       .  D
C73          C74   1.543       .  S
C73         C229   1.488       .  S
C74          C78   1.551       .  S
C74          C76   1.547       .  S
C74          H80   1.110       .  S
C75          H81   1.087       .  S
C75          C76   1.366       .  D
C76         C135   1.482       .  S
C77          H82   1.083       .  S
C77          C78   1.365       .  D
C78         C238   1.486       .  S
C83          C84   1.530       .  S
C83          C89   1.543       .  S
C83          C87   1.527       .  S
C83         C265   1.538       .  S
C84          H91   1.087       .  S
C84          C85   1.360       .  D
C85          C86   1.550       .  S
C85         C253   1.483       .  S
C86          C90   1.549       .  S
C86          C88   1.545       .  S
C86          H92   1.108       .  S
C87          H93   1.085       .  S
C87          C88   1.364       .  D
C89          H94   1.080       .  S
C89          C90   1.370       .  D
C90         C277   1.496       .  S
O95         C111   1.268       .  A
O95        Zn101   1.981       .  S
C96         O112   1.268       .  A
C96         O109   1.276       .  A
C96         C169   1.465       .  S
O97         C110   1.276       .  A
O97        Cd104   2.093       .  S
O98         C116   1.279       .  A
O98        Cd107   2.085       .  S
O99         C113   1.275       .  A
O99        Cd103   2.066       .  S
O100        C111   1.272       .  A
O100       Cd103   2.070       .  S
Zn101       O112   1.983       .  S
Zn101       O114   1.968       .  S
Zn101       O106   1.923       .  S
O102        C113   1.276       .  A
O102       Cd107   2.078       .  S
Cd103       O105   2.067       .  S
Cd103       O106   1.996       .  S
Cd104       O108   2.076       .  S
Cd104       O117   2.085       .  S
Cd104       O106   2.013       .  S
O105        C115   1.275       .  A
O106       Cd107   1.998       .  S
Cd107       O109   2.087       .  S
O108        C115   1.275       .  A
C110        O114   1.267       .  A
C110        C190   1.483       .  S
C111        C145   1.461       .  S
C113        C157   1.493       .  S
C115        C178   1.466       .  S
C116        O117   1.277       .  A
C116        C205   1.493       .  S
C118        C124   1.526       .  S
C118        C122   1.540       .  S
C118        C476   1.532       .  S
C118        C142   1.535       .  S
C119        C475   1.531   1_545  S
C119        H126   1.086       .  S
C119        C834   1.369       .  D
C120        C121   1.549       .  S
C120        C833   1.369   1_455  D
C120        C154   1.495       .  S
C121        C123   1.536   1_455  S
C121        C482   1.546   1_545  S
C121        H127   1.109       .  S
C122        H128   1.078       .  S
C122       C1194   1.367       .  D
C123       C1193   1.369   1_545  D
C124        H129   1.087       .  S
C124        C839   1.358       .  D
C125        C478   1.543       .  S
C125        C838   1.358   1_455  D
C125        C166   1.472       .  S
C130        C131   1.540       .  S
C130        C136   1.533       .  S
C130        C134   1.527       .  S
C130        C181   1.539       .  S
C131        H138   1.085       .  S
C131        C132   1.364       .  D
C132        C133   1.546       .  S
C132        C193   1.494       .  S
C133        C137   1.551       .  S
C133        C135   1.548       .  S
C133        H139   1.108       .  S
C134        H140   1.087       .  S
C134        C135   1.368       .  D
C136        H141   1.084       .  S
C136        C137   1.364       .  D
C137        C202   1.489       .  S
C142        C143   1.415       .  A
C142        C147   1.427       .  A
C143        C144   1.399       .  A
C143        H152   1.075       .  S
C144        C145   1.404       .  A
C144        S148   1.805       .  S
C145        C146   1.394       .  A
C146        C147   1.397       .  A
C146        H153   1.083       .  S
C147        S149   1.812       .  S
S148        H151   1.406       .  S
S149        H150   1.406       .  S
C154        C155   1.407       .  A
C154        C159   1.414       .  A
C155        C156   1.402       .  A
C155        H878   1.083       .  S
C156        C157   1.416       .  A
C156        S160   1.810       .  S
C157        C158   1.408       .  A
C158        C159   1.404       .  A
C158        H165   1.082       .  S
C159        S161   1.806       .  S
S160        H163   1.407   1_455  S
S161        H162   1.406       .  S
H164        C869   1.083       .  S
C166        C167   1.404       .  A
C166        C171   1.414       .  A
C167        C168   1.403       .  A
C167        H176   1.084       .  S
C168        C169   1.411       .  A
C168        S172   1.804       .  S
C169        C170   1.399       .  A
C170        C171   1.393       .  A
C170        H177   1.085       .  S
C171        S530   1.807       .  S
S172        H175   1.405       .  S
S173        C528   1.806   1_545  S
S173        H174   1.402       .  S
C178        C179   1.400       .  A
C178        C183   1.405       .  A
C179        C180   1.402       .  A
C179        H188   1.084       .  S
C180        C181   1.423       .  A
C180        S184   1.805       .  S
C181        C182   1.413       .  A
C182        C183   1.396       .  A
C182        H189   1.082       .  S
C183        S185   1.805       .  S
S184        H187   1.405       .  S
S185        H186   1.405       .  S
C190        C191   1.405       .  A
C190        C552   1.418       .  A
C191        C549   1.408       .  A
C191        H200   1.082       .  S
C192        C193   1.413       .  A
C192        C548   1.411       .  A
C192        S196   1.801       .  S
C193        C194   1.404       .  A
C194        C195   1.391       .  A
C194        H201   1.084       .  S
C195        C547   1.417       .  A
C195        S197   1.806       .  S
S196        H199   1.406       .  S
S197        H555   1.408       .  S
H198        S554   1.408       .  S
C202        C203   1.406       .  A
C202        C207   1.411       .  A
C203        C204   1.403       .  A
C203        H212   1.084       .  S
C204        C919   1.416       .  A
C204        S922   1.803       .  S
C205        C918   1.420       .  A
C205        C920   1.407   1_455  A
C206        C207   1.402       .  A
C206        C919   1.406       .  A
C206        H213   1.084       .  S
C207        S209   1.796       .  S
S208        C918   1.802       .  S
S208        H211   1.407       .  S
S209        H210   1.404       .  S
C214        C215   1.406       .  A
C214        C219   1.417       .  A
C215        C216   1.402       .  A
C215        H224   1.082       .  S
C216        C217   1.420       .  A
C216        S220   1.813       .  S
C217        C218   1.409       .  A
C218        C219   1.396       .  A
C218        H225   1.077       .  S
C219        S578   1.803   1_545  S
S220        H223   1.406       .  S
S221        C576   1.813       .  S
S221        H222   1.406       .  S
C226        C227   1.411       .  A
C226        C231   1.420       .  A
C227        C228   1.408       .  A
C227        H236   1.082       .  S
C228        C229   1.408       .  A
C228        S232   1.803       .  S
C229        C230   1.402       .  A
C230        C231   1.398       .  A
C230        H237   1.084       .  S
C231        S947   1.803       .  S
S232        H235   1.406       .  S
S233        C945   1.802       .  S
S233        H234   1.408       .  S
C238        C239   1.404       .  A
C238        C243   1.413       .  A
C239        C240   1.393       .  A
C239        H248   1.085       .  S
C240        C241   1.408       .  A
C240        S244   1.803       .  S
C241        C242   1.405       .  A
C242        C243   1.408       .  A
C242        H249   1.084       .  S
C243        S245   1.799       .  S
S244        H247   1.405       .  S
S245        H246   1.402       .  S
C250        C251   1.408       .  A
C250        C255   1.422       .  A
C251        C252   1.400       .  A
C251        H260   1.083       .  S
C252        C253   1.407       .  A
C252        S256   1.794       .  S
C253        C254   1.401       .  A
C254        C255   1.403       .  A
C254        H261   1.083       .  S
C255        S257   1.811       .  S
S256        H259   1.405       .  S
S257        H258   1.407       .  S
C262        C263   1.396       .  A
C262        C267   1.405       .  A
C263        C264   1.405       .  A
C263        H272   1.083       .  S
C264        C265   1.428       .  A
C264        S268   1.812       .  S
C265        C266   1.411       .  A
C266        C267   1.395       .  A
C266        H273   1.075       .  S
C267        S269   1.802   1_455  S
S268        H271   1.406       .  S
S269        H270   1.406       .  S
C274        C275   1.403       .  A
C274        C279   1.409       .  A
C275        C276   1.406       .  A
C275        H284   1.083       .  S
C276        C277   1.415       .  A
C276        S280   1.802       .  S
C277        C278   1.409       .  A
C278        C279   1.400       .  A
C278        H285   1.084       .  S
C279        S281   1.800   1_455  S
S280        H283   1.406       .  S
S281        H639   1.405       .  S
H282        S638   1.406       .  S
C286        C287   1.394       .  A
C286        C291   1.404       .  A
C287        C288   1.396       .  A
C287        H296   1.083       .  S
C288        C289   1.426       .  A
C288        S292   1.814       .  S
C289        C290   1.414       .  A
C290        C291   1.397       .  A
C290        H297   1.075       .  S
C291        S293   1.806       .  S
S292       H1009   1.407       .  S
S293        H294   1.406       .  S
H295       S1006   1.407       .  S
C298        C299   1.397       .  A
C298        C303   1.414       .  A
C299        C300   1.400       .  A
C299        H308   1.078       .  S
C300        C301   1.420       .  A
C300        S304   1.804       .  S
C301        C302   1.406       .  A
C302        C303   1.405       .  A
C302        H309   1.084       .  S
C303        S305   1.803       .  S
S304        H307   1.407       .  S
S305        H306   1.407       .  S
C310        C311   1.402       .  A
C310        C315   1.420       .  A
C311        C312   1.400       .  A
C311        H320   1.083       .  S
C312        C313   1.410       .  A
C312        S316   1.800   1_545  S
C313        C314   1.402       .  A
C314        C315   1.404       .  A
C314        H321   1.082       .  S
C315        S317   1.803       .  S
S316        H319   1.407   1_565  S
S317        H318   1.407       .  S
C322        C323   1.397       .  A
C322        C327   1.403       .  A
C323        C324   1.405       .  A
C323        H332   1.083       .  S
C324        C325   1.425       .  A
C324        S328   1.810       .  S
C325        C326   1.414       .  A
C326        C327   1.395       .  A
C326        H333   1.077       .  S
C327        S329   1.805       .  S
S328        H331   1.406       .  S
S329        H330   1.406       .  S
C334        C335   1.399       .  A
C334        C339   1.414       .  A
C335        C336   1.401       .  A
C335        H344   1.082       .  S
C336       C1051   1.418   1_455  A
C336        S340   1.805       .  S
C337        C338   1.400       .  A
C337       C1050   1.417       .  A
C338       C1053   1.403       .  A
C338        H345   1.083       .  S
C339       C1052   1.406   1_455  A
C339        S341   1.805       .  S
S340       H1057   1.407   1_455  S
S341        H342   1.406       .  S
H343       S1054   1.407       .  S
C346        C347   1.402       .  A
C346        C351   1.412       .  A
C347        C348   1.407       .  A
C347        H356   1.082       .  S
C348        C706   1.419       .  A
C348        S352   1.809       .  S
C349        C350   1.407   1_545  A
C349        C705   1.419   1_545  A
C350        C708   1.403       .  A
C350        H357   1.084   1_565  S
C351        C707   1.404       .  A
C351        S353   1.802       .  S
S352        H712   1.407       .  S
S353        H354   1.399       .  S
H355        S709   1.407       .  S
O358        C374   1.271       .  A
O358       Zn364   2.012       .  S
C359        O375   1.274       .  A
C359        O372   1.280       .  A
C359        C667   1.494       .  S
O360        C373   1.277       .  A
O360       Cd367   2.092       .  S
O361        C379   1.277       .  A
O361       Cd370   2.083       .  S
O362        C376   1.272       .  A
O362       Cd366   2.062       .  S
O363        C374   1.271       .  A
O363       Cd366   2.055       .  S
Zn364       O375   2.021       .  S
Zn364       O377   2.006       .  S
Zn364       O369   1.946       .  S
O365        C376   1.280       .  A
O365       Cd370   2.101       .  S
Cd366       O368   2.057       .  S
Cd366       O369   1.997       .  S
Cd367       O371   2.083       .  S
Cd367       O380   2.099       .  S
Cd367       O369   2.020       .  S
O368        C378   1.272       .  A
O369       Cd370   2.002       .  S
Cd370       O372   2.092       .  S
O371        C378   1.275       .  A
C373        O377   1.273       .  A
C373        C694   1.479       .  S
C374        C643   1.463       .  S
C376        C658   1.494       .  S
C378        C679   1.467       .  S
C379        O380   1.280       .  A
C379        C706   1.496       .  S
C381        C382   1.545       .  S
C381        C387   1.532       .  S
C381        C385   1.528       .  S
C381        C682   1.540       .  S
C382        H389   1.082       .  S
C382        C383   1.362       .  D
C383        C384   1.543       .  S
C383        C691   1.485       .  S
C384        C388   1.550       .  S
C384        C386   1.546       .  S
C384        H390   1.111       .  S
C385        H391   1.086       .  S
C385        C386   1.368       .  D
C386        C445   1.485       .  S
C387        H392   1.086       .  S
C387        C388   1.363       .  D
C388        C703   1.482       .  S
C393       C1108   1.526       .  S
C393        C399   1.535       .  S
C393        C397   1.544       .  S
C393        C646   1.534       .  S
C394       C1107   1.530   1_455  S
C394        H401   1.086       .  S
C395        C396   1.553       .  S
C395        C655   1.490       .  S
C396       C1114   1.546   1_455  S
C396        C398   1.542       .  S
C396        H402   1.111       .  S
C397        H403   1.082       .  S
C397        C755   1.369       .  D
C398        C754   1.369   1_455  D
C398        C480   1.482   1_556  S
C399        H404   1.087       .  S
C400       C1110   1.546       .  S
C400        C670   1.488       .  S
O405        C421   1.277       .  A
O405      Zn1125   2.036       .  S
C406        O422   1.273       .  A
C406        O419   1.273       .  A
C406        C571   1.490       .  S
O407        C420   1.277       .  A
O407      Cd1128   2.092   1_455  S
O408        C426   1.273       .  A
O408       Cd417   2.058       .  S
O409        C423   1.276       .  A
O410        C421   1.274       .  A
O410       Cd413   2.070       .  S
Zn411      O1119   2.029   1_455  S
Zn411       O424   2.020       .  S
Zn411      O1130   1.939   1_455  S
O412        C423   1.271       .  A
O412      Cd1131   2.057       .  S
Cd413       O415   2.072       .  S
Cd413       O416   1.998       .  S
Cd414      O1121   2.090       .  S
Cd414       O418   2.086       .  S
Cd414       O784   2.073   1_565  S
Cd414       O416   2.013       .  S
O415        C425   1.275       .  A
O416      Zn1125   1.946       .  S
O416       Cd774   1.999   1_565  S
Cd417      O1126   2.062   1_455  S
Cd417       O419   2.059       .  S
Cd417       O773   2.004   1_455  S
O418        C425   1.278       .  A
C420        O424   1.275       .  A
C420        C631   1.480       .  S
C421        C583   1.497       .  S
C423        C598   1.474       .  S
C425        C607   1.494       .  S
C426        O427   1.275       .  A
C426        C619   1.466       .  S
O427       Cd771   2.080   1_455  S
C428        C429   1.537       .  S
C428        C434   1.538       .  S
C428        C432   1.530       .  S
C428        C574   1.542       .  S
C429        H436   1.087       .  S
C429        C430   1.367       .  D
C430        C431   1.543       .  S
C430        C586   1.491       .  S
C431        C435   1.548       .  S
C431        C433   1.544       .  S
C431        H437   1.110       .  S
C432        H438   1.087       .  S
C432        C433   1.367       .  D
C433        C492   1.480       .  S
C434        H439   1.081       .  S
C434        C435   1.362       .  D
C435        C595   1.481       .  S
C440        C441   1.532       .  S
C440        C446   1.543       .  S
C440        C444   1.526       .  S
C440        C622   1.539       .  S
C441        H448   1.087       .  S
C441        C442   1.361       .  D
C442        C443   1.551       .  S
C442        C610   1.485       .  S
C443        C447   1.550       .  S
C443        C445   1.547       .  S
C443        H449   1.108       .  S
C444        H450   1.085       .  S
C444        C445   1.363       .  D
C446        H451   1.080       .  S
C446        C447   1.370       .  D
C447        C634   1.498       .  S
O452        C468   1.269       .  A
O452       Zn458   1.989       .  S
C453        O469   1.270       .  A
C453        O466   1.277       .  A
C453        C526   1.471       .  S
O454        C467   1.276       .  A
O454       Cd461   2.095       .  S
O455        C473   1.279       .  A
O455       Cd464   2.087       .  S
O456        C470   1.276       .  A
O456       Cd460   2.073       .  S
O457        C468   1.273       .  A
O457       Cd460   2.067       .  S
Zn458       O469   1.995       .  S
Zn458       O471   1.984       .  S
Zn458       O463   1.931       .  S
O459        C470   1.277       .  A
O459       Cd464   2.087       .  S
Cd460       O462   2.074       .  S
Cd460       O463   1.999       .  S
Cd461       O465   2.085       .  S
Cd461       O474   2.083       .  S
Cd461       O463   2.020       .  S
O462        C472   1.276       .  A
O463       Cd464   2.004       .  S
Cd464       O466   2.098       .  S
O465        C472   1.276       .  A
C467        O471   1.269       .  A
C467        C547   1.488   1_565  S
C468        C502   1.461       .  S
C470        C514   1.497       .  S
C472        C535   1.472       .  S
C473        O474   1.277       .  A
C473        C562   1.481       .  S
C475        C481   1.526       .  S
C475        C479   1.540       .  S
C475        C499   1.536       .  S
C476        H483   1.086       .  S
C476       C1191   1.370       .  D
C477        C478   1.552       .  S
C477       C1190   1.369   1_455  D
C477        C511   1.501       .  S
C478        C480   1.539       .  S
C478        H484   1.109       .  S
C479        H485   1.078       .  S
C479        C837   1.368   1_565  D
C480        C836   1.369   1_455  D
C481        H486   1.087       .  S
C481       C1196   1.359       .  D
C482       C1195   1.358   1_455  D
C482        C523   1.478       .  S
C487        C488   1.540       .  S
C487        C493   1.539       .  S
C487        C491   1.529       .  S
C487        C538   1.543       .  S
C488        H495   1.085       .  S
C488        C489   1.364       .  D
C489        C490   1.544       .  S
C489        C550   1.490       .  S
C490        C494   1.548       .  S
C490        C492   1.545       .  S
C490        H496   1.108       .  S
C491        H497   1.087       .  S
C491        C492   1.368       .  D
C493        H498   1.084       .  S
C493        C494   1.366       .  D
C494        C559   1.490       .  S
C499        C500   1.415       .  A
C499        C504   1.427       .  A
C500        C501   1.400       .  A
C500        H509   1.075       .  S
C501        C502   1.404       .  A
C501        S505   1.805       .  S
C502        C503   1.393       .  A
C503        C504   1.397       .  A
C503        H510   1.083       .  S
C504        S506   1.813   1_565  S
S505        H508   1.406       .  S
S506        H507   1.406       .  S
C511        C512   1.408       .  A
C511        C516   1.415       .  A
C512        C513   1.404       .  A
C512       H1235   1.083       .  S
C513        C514   1.416       .  A
C513        S517   1.810       .  S
C514        C515   1.409       .  A
C515        C516   1.407       .  A
C515        H522   1.082       .  S
C516        S518   1.805       .  S
S517        H520   1.406   1_455  S
S518        H519   1.406       .  S
H521       C1226   1.083       .  S
C523        C524   1.405       .  A
C523        C528   1.415       .  A
C524        C525   1.406       .  A
C524        H533   1.084       .  S
C525        C526   1.413       .  A
C525        S529   1.803       .  S
C526        C527   1.398       .  A
C527        C528   1.394       .  A
C527        H534   1.085       .  S
S529        H532   1.405       .  S
S530        H531   1.401       .  S
C535        C536   1.401       .  A
C535        C540   1.407       .  A
C536        C537   1.405       .  A
C536        H545   1.084       .  S
C537        C538   1.423       .  A
C537        S541   1.804       .  S
C538        C539   1.413       .  A
C539        C540   1.397       .  A
C539        H546   1.082       .  S
C540        S542   1.807       .  S
S541        H544   1.405       .  S
S542        H543   1.404       .  S
C547        C548   1.408       .  A
C548        H557   1.082   1_545  S
C549        C550   1.413       .  A
C549        S553   1.800       .  S
C550        C551   1.403       .  A
C551        C552   1.390       .  A
C551        H558   1.084       .  S
C552        S554   1.807       .  S
S553        H556   1.406       .  S
C559        C560   1.403       .  A
C559        C564   1.411       .  A
C560        C561   1.405       .  A
C560        H569   1.084       .  S
C561       C1276   1.419       .  A
C561       S1279   1.801       .  S
C562       C1275   1.414       .  A
C562       C1277   1.404   1_455  A
C563       C1276   1.408       .  A
C563        C564   1.403       .  A
C563        H570   1.084       .  S
C564        S566   1.796       .  S
S565       C1275   1.804       .  S
S565        H568   1.406       .  S
S566        H567   1.405       .  S
C571        C572   1.405       .  A
C571        C576   1.415       .  A
C572        C573   1.403       .  A
C572        H581   1.083       .  S
C573        C574   1.422       .  A
C573        S577   1.812       .  S
C574        C575   1.412       .  A
C575        C576   1.401       .  A
C575        H582   1.071       .  S
S577        H580   1.407       .  S
S578        H579   1.408       .  S
C583        C584   1.411       .  A
C583        C588   1.419       .  A
C584        C585   1.408       .  A
C584        H593   1.082       .  S
C585        C586   1.411       .  A
C585        S589   1.803       .  S
C586        C587   1.403       .  A
C587        C588   1.397       .  A
C587        H594   1.084       .  S
C588       S1304   1.803       .  S
S589        H592   1.406       .  S
S590       C1302   1.803       .  S
S590        H591   1.407       .  S
C595        C596   1.402       .  A
C595        C600   1.412       .  A
C596        C597   1.395       .  A
C596        H605   1.084       .  S
C597        C598   1.412       .  A
C597        S601   1.801       .  S
C598        C599   1.403       .  A
C599        C600   1.404       .  A
C599        H606   1.084       .  S
C600        S602   1.797       .  S
S601        H604   1.406       .  S
S602        H603   1.405       .  S
C607        C608   1.408       .  A
C607        C612   1.420       .  A
C608        C609   1.402       .  A
C608        H617   1.083       .  S
C609        C610   1.408       .  A
C609        S613   1.794       .  S
C610        C611   1.401       .  A
C611        C612   1.404       .  A
C611        H618   1.083       .  S
C612        S614   1.810       .  S
S613        H616   1.405       .  S
S614        H615   1.407       .  S
C619        C620   1.397       .  A
C619        C624   1.405       .  A
C620        C621   1.405       .  A
C620        H629   1.083       .  S
C621        C622   1.428       .  A
C621        S625   1.813       .  S
C622        C623   1.412       .  A
C623        C624   1.396       .  A
C623        H630   1.075       .  S
C624        S626   1.805   1_455  S
S625        H628   1.406       .  S
S626        H627   1.406       .  S
C631        C632   1.403       .  A
C631        C636   1.410       .  A
C632        C633   1.406       .  A
C632        H641   1.083       .  S
C633        C634   1.414       .  A
C633        S637   1.801       .  S
C634        C635   1.409       .  A
C635        C636   1.401       .  A
C635        H642   1.084       .  S
C636        S638   1.803   1_455  S
S637        H640   1.406       .  S
C643        C644   1.395       .  A
C643        C648   1.404       .  A
C644        C645   1.399       .  A
C644        H653   1.083       .  S
C645        C646   1.427       .  A
C645        S649   1.813       .  S
C646        C647   1.413       .  A
C647        C648   1.399       .  A
C647        H654   1.076       .  S
C648        S650   1.804       .  S
S649       H1366   1.407       .  S
S650        H651   1.406       .  S
H652       S1363   1.407       .  S
C655        C656   1.399       .  A
C655        C660   1.416       .  A
C656        C657   1.403       .  A
C656        H665   1.081       .  S
C657        C658   1.423       .  A
C657        S661   1.802       .  S
C658        C659   1.405       .  A
C659        C660   1.401       .  A
C659        H666   1.084       .  S
C660        S662   1.805       .  S
S661        H664   1.407       .  S
S662        H663   1.407       .  S
C667        C668   1.405       .  A
C667        C672   1.421       .  A
C668        C669   1.404       .  A
C668        H677   1.082       .  S
C669        C670   1.413       .  A
C669        S673   1.806       .  S
C670        C671   1.399       .  A
C671        C672   1.403       .  A
C671        H678   1.079       .  S
C672        S674   1.802       .  S
S673        H676   1.406       .  S
S674        H675   1.408       .  S
C679        C680   1.399       .  A
C679        C684   1.403       .  A
C680        C681   1.407       .  A
C680        H689   1.083       .  S
C681        C682   1.425       .  A
C681        S685   1.810       .  S
C682        C683   1.413       .  A
C683        C684   1.394       .  A
C683        H690   1.076       .  S
C684        S686   1.806       .  S
S685        H688   1.406       .  S
S686        H687   1.405       .  S
C691        C692   1.400       .  A
C691        C696   1.414       .  A
C692        C693   1.402       .  A
C692        H701   1.082       .  S
C693       C1408   1.416   1_455  A
C693        S697   1.805       .  S
C694       C1407   1.417       .  A
C694        C695   1.401       .  A
C695       C1410   1.405       .  A
C695        H702   1.083       .  S
C696       C1409   1.404   1_455  A
C696        S698   1.805       .  S
S697       H1414   1.407   1_455  S
S698        H699   1.407       .  S
H700       S1411   1.407       .  S
C703        C704   1.401       .  A
C703        C708   1.412       .  A
C704        C705   1.405       .  A
C704        H713   1.081       .  S
C705        S709   1.809       .  S
C706        C707   1.407       .  A
C707        H714   1.084       .  S
C708        S710   1.803       .  S
S710        H711   1.400       .  S
O715        C731   1.270       .  A
O715       Zn721   1.998       .  S
C716        O732   1.273       .  A
C716        O729   1.279       .  A
C716       C1024   1.489       .  S
O717        C730   1.278       .  A
O717       Cd724   2.101       .  S
O718        C736   1.277       .  A
O718       Cd727   2.080       .  S
O719        C733   1.271       .  A
O719       Cd723   2.057       .  S
O720        C731   1.271       .  A
O720       Cd723   2.053       .  S
Zn721       O732   2.007       .  S
Zn721       O734   2.003       .  S
Zn721       O726   1.939       .  S
O722        C733   1.279       .  A
O722       Cd727   2.101       .  S
Cd723       O725   2.042       .  S
Cd723       O726   1.994       .  S
Cd724       O728   2.078       .  S
Cd724       O737   2.098       .  S
Cd724       O726   2.018       .  S
O725        C735   1.271       .  A
O726       Cd727   1.999       .  S
Cd727       O729   2.085       .  S
O728        C735   1.275       .  A
C730        O734   1.272       .  A
C730       C1051   1.483       .  S
C731       C1000   1.459       .  S
C733       C1015   1.492       .  S
C735       C1036   1.460       .  S
C736        O737   1.280       .  A
C736       C1063   1.493       .  S
C738        C739   1.544       .  S
C738        C744   1.532       .  S
C738        C742   1.527       .  S
C738       C1039   1.536       .  S
C739        H746   1.081       .  S
C739        C740   1.361       .  D
C740        C741   1.543       .  S
C740       C1048   1.484       .  S
C741        C745   1.552       .  S
C741        C743   1.549       .  S
C741        H747   1.111       .  S
C742        H748   1.086       .  S
C742        C743   1.366       .  D
C743        C802   1.486       .  S
C744        H749   1.086       .  S
C744        C745   1.363       .  D
C745       C1060   1.484       .  S
C750        C756   1.531       .  S
C750        C754   1.544       .  S
C750       C1003   1.533       .  S
C751        H758   1.086       .  S
C751       C1109   1.363       .  D
C752        C753   1.549       .  S
C752       C1108   1.362   1_545  D
C752       C1012   1.486       .  S
C753        C755   1.545   1_545  S
C753        H759   1.111       .  S
C754        H760   1.081       .  S
C755        C837   1.484   1_566  S
C756        H761   1.087       .  S
C756       C1114   1.360       .  D
C757       C1113   1.361   1_545  D
C757       C1027   1.486       .  S
O762        C778   1.278       .  A
C763        O779   1.272   1_545  A
C763        O776   1.275       .  A
C763        C928   1.492       .  S
O764        C777   1.276       .  A
O765        C783   1.274       .  A
O765       Cd774   2.066       .  S
O766        C780   1.276   1_565  A
O766      Cd1127   2.091       .  S
O767        C778   1.276       .  A
O767       Cd770   2.083       .  S
Zn768      O1136   2.015       .  S
Zn768       O781   2.032       .  S
O769        C780   1.271       .  A
Cd770      O1123   2.081       .  S
Cd770       O772   2.066       .  S
Cd770       O773   1.991       .  S
Cd771       O775   2.096       .  S
Cd771       O773   2.019       .  S
O772        C782   1.273       .  A
Cd774       O776   2.067       .  S
O775        C782   1.279       .  A
C777        O781   1.277       .  A
C777        C988   1.485       .  S
C778        C940   1.501       .  S
O779      Zn1125   2.010       .  S
C780        C955   1.473       .  S
C782        C964   1.499       .  S
C783        O784   1.274       .  A
C783        C976   1.467       .  S
C785        C786   1.539       .  S
C785        C791   1.535       .  S
C785        C789   1.523       .  S
C785        C931   1.534       .  S
C786        H793   1.086       .  S
C786        C787   1.364       .  D
C787        C788   1.547       .  S
C787        C943   1.492       .  S
C788        C792   1.555       .  S
C788        C790   1.550       .  S
C788        H794   1.110       .  S
C789        H795   1.087       .  S
C789        C790   1.364       .  D
C790        C849   1.483       .  S
C791        H796   1.083       .  S
C791        C792   1.366       .  D
C792        C952   1.487       .  S
C797        C798   1.529       .  S
C797        C803   1.544       .  S
C797        C801   1.527       .  S
C797        C979   1.539       .  S
C798        H805   1.087       .  S
C798        C799   1.360       .  D
C799        C800   1.553       .  S
C799        C967   1.487       .  S
C800        C804   1.551       .  S
C800        C802   1.546       .  S
C800        H806   1.109       .  S
C801        H807   1.084       .  S
C801        C802   1.365       .  D
C803        H808   1.081       .  S
C803        C804   1.369       .  D
C804        C991   1.496       .  S
O809        C825   1.268       .  A
O809       Zn815   1.986       .  S
C810        O826   1.268       .  A
C810        O823   1.276       .  A
C810        C883   1.463       .  S
O811        C824   1.277       .  A
O811       Cd818   2.102       .  S
O812        C830   1.278       .  A
O812       Cd821   2.082       .  S
O813        C827   1.277       .  A
O813       Cd817   2.082       .  S
O814        C825   1.273       .  A
O814       Cd817   2.072       .  S
Zn815       O826   1.984       .  S
Zn815       O828   1.991       .  S
Zn815       O820   1.930       .  S
O816        C827   1.277       .  A
O816       Cd821   2.087       .  S
Cd817       O819   2.073       .  S
Cd817       O820   1.999       .  S
Cd818       O822   2.082       .  S
Cd818       O831   2.093       .  S
Cd818       O820   2.019       .  S
O819        C829   1.276       .  A
O820       Cd821   2.001       .  S
Cd821       O823   2.084       .  S
O822        C829   1.276       .  A
C824        O828   1.270       .  A
C824        C904   1.491       .  S
C825        C859   1.460       .  S
C827        C871   1.500       .  S
C829        C892   1.470       .  S
C830        O831   1.279       .  A
C830        C919   1.488       .  S
C832       C1190   1.529       .  S
C832        C838   1.528       .  S
C832        C836   1.540       .  S
C832        C856   1.534       .  S
C833       C1189   1.529   1_545  S
C833        H840   1.086       .  S
C834        C835   1.553       .  S
C834        C868   1.503       .  S
C835       C1196   1.546   1_545  S
C835        C837   1.540       .  S
C835        H841   1.109       .  S
C836        H842   1.079       .  S
C838        H843   1.087       .  S
C839       C1192   1.542       .  S
C839        C880   1.473       .  S
C844        C845   1.542       .  S
C844        C850   1.535       .  S
C844        C848   1.527       .  S
C844        C895   1.541       .  S
C845        H852   1.085       .  S
C845        C846   1.364       .  D
C846        C847   1.547       .  S
C846        C907   1.495       .  S
C847        C851   1.548       .  S
C847        C849   1.549       .  S
C847        H853   1.108       .  S
C848        H854   1.087       .  S
C848        C849   1.369       .  D
C850        H855   1.084       .  S
C850        C851   1.364       .  D
C851        C916   1.485       .  S
C856        C857   1.414       .  A
C856        C861   1.425       .  A
C857        C858   1.402       .  A
C857        H866   1.076       .  S
C858        C859   1.408       .  A
C858        S862   1.809       .  S
C859        C860   1.393       .  A
C860        C861   1.394       .  A
C860        H867   1.084       .  S
C861        S863   1.811       .  S
S862        H865   1.402       .  S
S863        H864   1.407       .  S
C868        C869   1.408       .  A
C868        C873   1.416       .  A
C869        C870   1.405       .  A
C870        C871   1.417       .  A
C870        S874   1.809       .  S
C871        C872   1.409       .  A
C872        C873   1.407       .  A
C872        H879   1.082       .  S
C873        S875   1.804       .  S
S874        H877   1.407       .  S
S875        H876   1.407       .  S
C880        C881   1.404       .  A
C880        C885   1.414       .  A
C881        C882   1.402       .  A
C881        H890   1.084       .  S
C882        C883   1.410       .  A
C882        S886   1.802       .  S
C883        C884   1.398       .  A
C884        C885   1.392       .  A
C884        H891   1.085       .  S
C885       S1244   1.806       .  S
S886        H889   1.406       .  S
S887       C1242   1.806   1_545  S
S887        H888   1.402       .  S
C892        C893   1.401       .  A
C892        C897   1.405       .  A
C893        C894   1.404       .  A
C893        H902   1.084       .  S
C894        C895   1.423       .  A
C894        S898   1.805       .  S
C895        C896   1.413       .  A
C896        C897   1.396       .  A
C896        H903   1.082       .  S
C897        S899   1.805       .  S
S898        H901   1.404       .  S
S899        H900   1.405       .  S
C904        C905   1.409       .  A
C904       C1266   1.418       .  A
C905       C1263   1.413       .  A
C905        H914   1.082       .  S
C906       C1262   1.410       .  A
C906        C907   1.413       .  A
C906        S910   1.801       .  S
C907        C908   1.404       .  A
C908        C909   1.393       .  A
C908        H915   1.084       .  S
C909       C1261   1.418   1_545  A
C909        S911   1.806       .  S
S910        H913   1.406       .  S
S911       H1269   1.408   1_545  S
H912       S1268   1.408       .  S
C916        C917   1.402       .  A
C916        C921   1.409       .  A
C917        C918   1.404   1_655  A
C917        H926   1.084       .  S
C920        C921   1.400       .  A
C920        H927   1.084       .  S
C921        S923   1.795       .  S
S922        H925   1.407       .  S
S923        H924   1.405       .  S
C928        C929   1.406       .  A
C928        C933   1.417       .  A
C929        C930   1.402       .  A
C929        H938   1.082       .  S
C930        C931   1.421       .  A
C930        S934   1.813       .  S
C931        C932   1.409       .  A
C932        C933   1.397       .  A
C932        H939   1.078       .  S
C933       S1292   1.803   1_545  S
S934        H937   1.406       .  S
S935       C1290   1.803       .  S
S935        H936   1.408       .  S
C940        C941   1.412       .  A
C940        C945   1.420       .  A
C941        C942   1.410       .  A
C941        H950   1.082       .  S
C942        C943   1.409       .  A
C942        S946   1.802       .  S
C943        C944   1.403       .  A
C944        C945   1.400       .  A
C944        H951   1.084       .  S
S946        H949   1.406       .  S
S947        H948   1.408       .  S
C952        C953   1.403       .  A
C952        C957   1.415       .  A
C953        C954   1.393       .  A
C953        H962   1.084       .  S
C954        C955   1.408       .  A
C954        S958   1.802       .  S
C955        C956   1.404       .  A
C956        C957   1.409       .  A
C956        H963   1.084       .  S
C957        S959   1.798       .  S
S958        H961   1.406       .  S
S959        H960   1.403       .  S
C964        C965   1.409       .  A
C964        C969   1.424       .  A
C965        C966   1.403       .  A
C965        H974   1.083       .  S
C966        C967   1.407       .  A
C966        S970   1.792       .  S
C967        C968   1.400       .  A
C968        C969   1.403       .  A
C968        H975   1.083       .  S
C969        S971   1.811       .  S
S970        H973   1.405       .  S
S971        H972   1.407       .  S
C976        C977   1.396       .  A
C976        C981   1.405       .  A
C977        C978   1.405       .  A
C977        H986   1.083       .  S
C978        C979   1.427       .  A
C978        S982   1.812       .  S
C979        C980   1.411       .  A
C980        C981   1.396       .  A
C980        H987   1.075       .  S
C981        S983   1.803       .  S
S982        H985   1.406       .  S
S983        H984   1.406       .  S
C988        C989   1.404       .  A
C988        C993   1.411       .  A
C989        C990   1.406       .  A
C989        H998   1.083       .  S
C990        C991   1.413       .  A
C990        S994   1.801       .  S
C991        C992   1.409       .  A
C992        C993   1.402       .  A
C992        H999   1.084       .  S
C993        S995   1.799       .  S
S994        H997   1.406       .  S
S995       H1353   1.406       .  S
H996       S1352   1.406       .  S
C1000      C1001   1.394       .  A
C1000      C1005   1.404       .  A
C1001      C1002   1.397       .  A
C1001      H1010   1.083       .  S
C1002      C1003   1.427       .  A
C1002      S1006   1.814   1_655  S
C1003      C1004   1.413       .  A
C1004      C1005   1.398       .  A
C1004      H1011   1.075       .  S
C1005      S1007   1.805       .  S
S1007      H1008   1.406       .  S
C1012      C1013   1.398       .  A
C1012      C1017   1.415       .  A
C1013      C1014   1.402       .  A
C1013      H1022   1.082       .  S
C1014      C1015   1.423       .  A
C1014      S1018   1.802       .  S
C1015      C1016   1.405       .  A
C1016      C1017   1.401       .  A
C1016      H1023   1.084       .  S
C1017      S1019   1.805   1_545  S
S1018      H1021   1.406       .  S
S1019      H1020   1.407       .  S
C1024      C1025   1.404       .  A
C1024      C1029   1.421       .  A
C1025      C1026   1.401       .  A
C1025      H1034   1.083       .  S
C1026      C1027   1.412       .  A
C1026      S1030   1.805   1_545  S
C1027      C1028   1.399   1_655  A
C1028      C1029   1.402   1_455  A
C1028      H1035   1.079       .  S
C1029      S1031   1.803   1_655  S
S1030      H1033   1.407       .  S
S1031      H1032   1.408   1_455  S
C1036      C1037   1.396       .  A
C1036      C1041   1.403       .  A
C1037      C1038   1.403       .  A
C1037      H1046   1.083       .  S
C1038      C1039   1.425       .  A
C1038      S1042   1.808       .  S
C1039      C1040   1.413       .  A
C1040      C1041   1.392       .  A
C1040      H1047   1.075       .  S
C1041      S1043   1.806       .  S
S1042      H1045   1.407       .  S
S1043      H1044   1.406       .  S
C1048      C1049   1.399       .  A
C1048      C1053   1.413       .  A
C1049      C1050   1.401       .  A
C1049      H1058   1.079       .  S
C1050      S1054   1.805       .  S
C1051      C1052   1.402       .  A
C1052      H1059   1.083       .  S
C1053      S1055   1.803       .  S
S1055      H1056   1.407       .  S
C1060      C1061   1.402       .  A
C1060      C1065   1.412       .  A
C1061      C1062   1.404       .  A
C1061      H1070   1.079       .  S
C1062      C1420   1.415       .  A
C1062      S1066   1.809       .  S
C1063      C1419   1.419   1_545  A
C1063      C1064   1.406       .  A
C1064      C1422   1.403   1_545  A
C1064      H1071   1.084       .  S
C1065      C1421   1.403       .  A
C1065      S1067   1.801       .  S
S1066      H1426   1.407       .  S
S1067      H1068   1.404       .  S
H1069      S1423   1.407       .  S
O1072      C1088   1.271       .  A
O1072     Zn1078   2.001       .  S
C1073      O1089   1.274       .  A
C1073      O1086   1.280       .  A
C1073      C1381   1.494       .  S
O1074      C1087   1.276       .  A
O1074     Cd1081   2.090       .  S
O1075      C1093   1.278       .  A
O1075     Cd1084   2.081       .  S
O1076      C1090   1.272       .  A
O1076     Cd1080   2.059       .  S
O1077      C1088   1.272       .  A
O1077     Cd1080   2.055       .  S
Zn1078     O1089   2.021       .  S
Zn1078     O1091   2.007       .  S
Zn1078     O1083   1.946       .  S
O1079      C1090   1.279       .  A
O1079     Cd1084   2.107       .  S
Cd1080     O1082   2.058       .  S
Cd1080     O1083   1.995       .  S
Cd1081     O1085   2.078       .  S
Cd1081     O1094   2.086       .  S
Cd1081     O1083   2.017       .  S
O1082      C1092   1.273       .  A
O1083     Cd1084   2.003       .  S
Cd1084     O1086   2.091       .  S
O1085      C1092   1.275       .  A
C1087      O1091   1.272       .  A
C1087      C1408   1.479       .  S
C1088      C1357   1.461       .  S
C1090      C1372   1.491       .  S
C1092      C1393   1.467       .  S
C1093      O1094   1.278       .  A
C1093      C1420   1.486       .  S
C1095      C1096   1.543       .  S
C1095      C1101   1.533       .  S
C1095      C1099   1.530       .  S
C1095      C1396   1.542       .  S
C1096      H1103   1.081       .  S
C1096      C1097   1.360       .  D
C1097      C1098   1.543       .  S
C1097      C1405   1.483       .  S
C1098      C1102   1.551       .  S
C1098      C1100   1.547       .  S
C1098      H1104   1.111       .  S
C1099      H1105   1.086       .  S
C1099      C1100   1.370       .  D
C1100      C1159   1.488       .  S
C1101      H1106   1.086       .  S
C1101      C1102   1.364       .  D
C1102      C1417   1.486       .  S
C1107      C1113   1.533       .  S
C1107      C1111   1.541       .  S
C1107      C1360   1.534       .  S
C1108      H1115   1.087       .  S
C1109      C1110   1.553       .  S
C1109      C1369   1.489       .  S
C1110      C1112   1.544       .  S
C1110      H1116   1.111       .  S
C1111      H1117   1.081       .  S
C1112      C1194   1.477   1_556  S
C1113      H1118   1.087       .  S
C1114      C1384   1.486       .  S
O1119      C1135   1.276       .  A
C1120      O1136   1.273       .  A
C1120      O1133   1.274       .  A
C1120      C1285   1.491       .  S
O1121      C1134   1.276       .  A
O1122      C1140   1.272       .  A
O1122     Cd1131   2.052       .  S
O1123      C1137   1.277       .  A
O1124      C1135   1.276       .  A
O1124     Cd1127   2.075       .  S
Zn1125     O1138   2.038       .  S
O1126      C1137   1.271       .  A
Cd1127     O1129   2.069       .  S
Cd1127     O1130   1.997       .  S
Cd1128     O1132   2.086       .  S
Cd1128     O1130   2.015       .  S
O1129      C1139   1.275       .  A
Cd1131     O1133   2.059       .  S
O1132      C1139   1.278       .  A
C1134      O1138   1.277       .  A
C1134      C1345   1.485       .  S
C1135      C1297   1.487       .  S
C1137      C1312   1.470       .  S
C1139      C1321   1.495       .  S
C1140      O1141   1.274       .  A
C1140      C1333   1.464       .  S
C1142      C1143   1.542       .  S
C1142      C1148   1.531       .  S
C1142      C1146   1.519       .  S
C1142      C1288   1.535       .  S
C1143      H1150   1.086       .  S
C1143      C1144   1.363       .  D
C1144      C1145   1.537       .  S
C1144      C1300   1.480       .  S
C1145      C1149   1.554       .  S
C1145      C1147   1.554       .  S
C1145      H1151   1.110       .  S
C1146      H1152   1.087       .  S
C1146      C1147   1.366       .  D
C1147      C1206   1.484       .  S
C1148      H1153   1.082       .  S
C1148      C1149   1.367       .  D
C1149      C1309   1.497       .  S
C1154      C1155   1.530       .  S
C1154      C1160   1.542       .  S
C1154      C1158   1.522       .  S
C1154      C1336   1.535       .  S
C1155      H1162   1.087       .  S
C1155      C1156   1.361       .  D
C1156      C1157   1.553       .  S
C1156      C1324   1.486       .  S
C1157      C1161   1.554       .  S
C1157      C1159   1.550       .  S
C1157      H1163   1.108       .  S
C1158      H1164   1.085       .  S
C1158      C1159   1.362       .  D
C1160      H1165   1.082       .  S
C1160      C1161   1.370       .  D
C1161      C1348   1.501       .  S
O1166      C1182   1.268       .  A
O1166     Zn1172   1.983       .  S
C1167      O1183   1.268       .  A
C1167      O1180   1.277       .  A
C1167      C1240   1.466       .  S
O1168      C1181   1.278       .  A
O1168     Cd1175   2.101       .  S
O1169      C1187   1.279       .  A
O1169     Cd1178   2.086       .  S
O1170      C1184   1.275       .  A
O1170     Cd1174   2.069       .  S
O1171      C1182   1.272       .  A
O1171     Cd1174   2.068       .  S
Zn1172     O1183   1.982       .  S
Zn1172     O1185   1.982       .  S
Zn1172     O1177   1.928       .  S
O1173      C1184   1.276       .  A
O1173     Cd1178   2.081       .  S
Cd1174     O1176   2.069       .  S
Cd1174     O1177   1.997       .  S
Cd1175     O1179   2.084       .  S
Cd1175     O1188   2.096       .  S
Cd1175     O1177   2.015       .  S
O1176      C1186   1.275       .  A
O1177     Cd1178   2.001       .  S
Cd1178     O1180   2.093       .  S
O1179      C1186   1.276       .  A
C1181      O1185   1.269       .  A
C1181      C1261   1.488       .  S
C1182      C1216   1.459       .  S
C1184      C1228   1.493       .  S
C1186      C1249   1.470       .  S
C1187      O1188   1.279       .  A
C1187      C1276   1.496       .  S
C1189      C1195   1.527       .  S
C1189      C1193   1.541       .  S
C1189      C1213   1.535       .  S
C1190      H1197   1.086       .  S
C1191      C1192   1.547       .  S
C1191      C1225   1.495       .  S
C1192      C1194   1.537       .  S
C1192      H1198   1.109       .  S
C1193      H1199   1.078       .  S
C1195      H1200   1.087       .  S
C1196      C1237   1.475       .  S
C1201      C1202   1.541       .  S
C1201      C1207   1.531       .  S
C1201      C1205   1.526       .  S
C1201      C1252   1.542       .  S
C1202      H1209   1.084       .  S
C1202      C1203   1.364       .  D
C1203      C1204   1.547       .  S
C1203      C1264   1.497       .  S
C1204      C1208   1.553       .  S
C1204      C1206   1.549       .  S
C1204      H1210   1.109       .  S
C1205      H1211   1.087       .  S
C1205      C1206   1.370       .  D
C1207      H1212   1.085       .  S
C1207      C1208   1.366       .  D
C1208      C1273   1.491       .  S
C1213      C1214   1.414       .  A
C1213      C1218   1.426       .  A
C1214      C1215   1.401       .  A
C1214      H1223   1.076       .  S
C1215      C1216   1.407       .  A
C1215      S1219   1.809       .  S
C1216      C1217   1.393       .  A
C1217      C1218   1.395       .  A
C1217      H1224   1.084       .  S
C1218      S1220   1.812   1_565  S
S1219      H1222   1.402       .  S
S1220      H1221   1.407       .  S
C1225      C1226   1.406       .  A
C1225      C1230   1.415       .  A
C1226      C1227   1.402       .  A
C1227      C1228   1.416       .  A
C1227      S1231   1.809       .  S
C1228      C1229   1.408       .  A
C1229      C1230   1.404       .  A
C1229      H1236   1.082       .  S
C1230      S1232   1.806       .  S
S1231      H1234   1.407       .  S
S1232      H1233   1.406       .  S
C1237      C1238   1.405       .  A
C1237      C1242   1.414       .  A
C1238      C1239   1.404       .  A
C1238      H1247   1.084       .  S
C1239      C1240   1.413       .  A
C1239      S1243   1.805       .  S
C1240      C1241   1.399       .  A
C1241      C1242   1.393       .  A
C1241      H1248   1.085       .  S
S1243      H1246   1.404       .  S
S1244      H1245   1.403       .  S
C1249      C1250   1.401       .  A
C1249      C1254   1.405       .  A
C1250      C1251   1.405       .  A
C1250      H1259   1.084       .  S
C1251      C1252   1.424       .  A
C1251      S1255   1.805       .  S
C1252      C1253   1.413       .  A
C1253      C1254   1.395       .  A
C1253      H1260   1.081       .  S
C1254      S1256   1.805       .  S
S1255      H1258   1.404       .  S
S1256      H1257   1.406       .  S
C1261      C1262   1.407   1_565  A
C1262      H1271   1.082   1_545  S
C1263      C1264   1.413       .  A
C1263      S1267   1.802       .  S
C1264      C1265   1.404       .  A
C1265      C1266   1.392       .  A
C1265      H1272   1.084       .  S
C1266      S1268   1.806       .  S
S1267      H1270   1.406       .  S
C1273      C1274   1.407       .  A
C1273      C1278   1.412       .  A
C1274      C1275   1.401   1_655  A
C1274      H1283   1.084       .  S
C1277      C1278   1.402       .  A
C1277      H1284   1.084       .  S
C1278      S1280   1.793       .  S
S1279      H1282   1.407       .  S
S1280      H1281   1.405       .  S
C1285      C1286   1.408       .  A
C1285      C1290   1.416       .  A
C1286      C1287   1.403       .  A
C1286      H1295   1.082       .  S
C1287      C1288   1.419       .  A
C1287      S1291   1.813       .  S
C1288      C1289   1.409       .  A
C1289      C1290   1.395       .  A
C1289      H1296   1.077       .  S
S1291      H1294   1.406       .  S
S1292      H1293   1.408       .  S
C1297      C1298   1.409       .  A
C1297      C1302   1.416       .  A
C1298      C1299   1.407       .  A
C1298      H1307   1.083       .  S
C1299      C1300   1.407       .  A
C1299      S1303   1.804       .  S
C1300      C1301   1.401       .  A
C1301      C1302   1.398       .  A
C1301      H1308   1.084       .  S
S1303      H1306   1.407       .  S
S1304      H1305   1.408       .  S
C1309      C1310   1.410       .  A
C1309      C1314   1.415       .  A
C1310      C1311   1.388       .  A
C1310      H1319   1.084       .  S
C1311      C1312   1.406       .  A
C1311      S1315   1.808       .  S
C1312      C1313   1.407       .  A
C1313      C1314   1.411       .  A
C1313      H1320   1.083       .  S
C1314      S1316   1.801       .  S
S1315      H1318   1.406       .  S
S1316      H1317   1.402       .  S
C1321      C1322   1.409       .  A
C1321      C1326   1.421       .  A
C1322      C1323   1.402       .  A
C1322      H1331   1.083       .  S
C1323      C1324   1.408       .  A
C1323      S1327   1.793       .  S
C1324      C1325   1.401       .  A
C1325      C1326   1.403       .  A
C1325      H1332   1.083       .  S
C1326      S1328   1.811       .  S
S1327      H1330   1.405       .  S
S1328      H1329   1.406       .  S
C1333      C1334   1.396       .  A
C1333      C1338   1.406       .  A
C1334      C1335   1.403       .  A
C1334      H1343   1.083       .  S
C1335      C1336   1.426       .  A
C1335      S1339   1.811       .  S
C1336      C1337   1.410       .  A
C1337      C1338   1.395       .  A
C1337      H1344   1.077       .  S
C1338      S1340   1.803       .  S
S1339      H1342   1.407       .  S
S1340      H1341   1.404       .  S
C1345      C1346   1.404       .  A
C1345      C1350   1.410       .  A
C1346      C1347   1.408       .  A
C1346      H1355   1.083       .  S
C1347      C1348   1.416       .  A
C1347      S1351   1.801       .  S
C1348      C1349   1.410       .  A
C1349      C1350   1.402       .  A
C1349      H1356   1.084       .  S
C1350      S1352   1.799       .  S
S1351      H1354   1.407       .  S
C1357      C1358   1.396       .  A
C1357      C1362   1.402       .  A
C1358      C1359   1.400       .  A
C1358      H1367   1.083       .  S
C1359      C1360   1.426       .  A
C1359      S1363   1.814   1_655  S
C1360      C1361   1.414       .  A
C1361      C1362   1.395       .  A
C1361      H1368   1.074       .  S
C1362      S1364   1.805       .  S
S1364      H1365   1.406       .  S
C1369      C1370   1.397       .  A
C1369      C1374   1.415       .  A
C1370      C1371   1.400       .  A
C1370      H1379   1.078       .  S
C1371      C1372   1.420       .  A
C1371      S1375   1.803       .  S
C1372      C1373   1.406       .  A
C1373      C1374   1.405       .  A
C1373      H1380   1.084       .  S
C1374      S1376   1.804       .  S
S1375      H1378   1.407       .  S
S1376      H1377   1.407       .  S
C1381      C1382   1.405       .  A
C1381      C1386   1.422       .  A
C1382      C1383   1.402       .  A
C1382      H1391   1.082       .  S
C1383      C1384   1.413       .  A
C1383      S1387   1.807       .  S
C1384      C1385   1.399   1_655  A
C1385      C1386   1.404   1_455  A
C1385      H1392   1.081       .  S
C1386      S1388   1.802   1_655  S
S1387      H1390   1.406       .  S
S1388      H1389   1.408   1_455  S
C1393      C1394   1.398       .  A
C1393      C1398   1.403       .  A
C1394      C1395   1.406       .  A
C1394      H1403   1.083       .  S
C1395      C1396   1.424       .  A
C1395      S1399   1.809       .  S
C1396      C1397   1.415       .  A
C1397      C1398   1.395       .  A
C1397      H1404   1.074       .  S
C1398      S1400   1.805       .  S
S1399      H1402   1.406       .  S
S1400      H1401   1.406       .  S
C1405      C1406   1.399       .  A
C1405      C1410   1.415       .  A
C1406      C1407   1.401       .  A
C1406      H1415   1.082       .  S
C1407      S1411   1.805       .  S
C1408      C1409   1.401       .  A
C1409      H1416   1.083       .  S
C1410      S1412   1.805       .  S
S1412      H1413   1.406       .  S
C1417      C1418   1.402       .  A
C1417      C1422   1.412       .  A
C1418      C1419   1.407       .  A
C1418      H1427   1.082       .  S
C1419      S1423   1.809       .  S
C1420      C1421   1.405       .  A
C1421      H1428   1.084       .  S
C1422      S1424   1.800       .  S
S1424      H1425   1.400       .  S
