geometry optimzed in LAMMPS
_audit_creation_date              2020-11-30 
_audit_creation_method            'lammps2cif' 
_symmetry_space_group_name_H-M    'P1' 
_symmetry_Int_Tables_number       1 
_symmetry_cell_setting            triclinic 
loop_ 
_symmetry_equiv_pos_as_xyz 
  x,y,z 
_cell_length_a                    68.8697424 
_cell_length_b                    69.46617035359246 
_cell_length_c                    69.24800573741327 
_cell_angle_alpha                 90.17180157637598 
_cell_angle_beta                  89.80388839578094 
_cell_angle_gamma                 90.0029742083246 
loop_ 
_atom_site_label 
_atom_site_type_symbol 
_atom_site_fract_x 
_atom_site_fract_y 
_atom_site_fract_z 
_atom_site_charge 
In1        In  0.95023492  0.79010803  0.42868933     1.36900
C2          C  0.93573823  0.77544275  0.39547684     0.78500
O3          O  0.91919908  0.79340854  0.43983262    -0.60000
O4          O  0.93787491  0.81775579  0.43843487    -0.50900
C5          C  0.97118754  0.77426653  0.45753892     0.71200
O6          O  0.97611336  0.77337457  0.44006064    -0.45700
C7          C  0.97669347  0.81338831  0.41404908     0.75900
O8          O  0.94096010  0.79249839  0.39816558    -0.57600
O9          O  0.96341213  0.81929906  0.42514931    -0.47700
O10         O  0.93729702  0.76508259  0.41045460    -0.54000
C11         C  0.92105877  0.81146287  0.44188989     0.86000
O12         O  0.95432721  0.78091948  0.45994914    -0.55900
O13         O  0.97713349  0.79536730  0.41171244    -0.59200
In14       In  0.80501613  0.94385282  0.43224105     1.36900
C15         C  0.78933503  0.92703674  0.40075993     0.78500
O16         O  0.80845152  0.96705645  0.41070084    -0.60000
O17         O  0.83396973  0.95343481  0.42127271    -0.50900
C18         C  0.79151295  0.96677517  0.46078210     0.71200
O19         O  0.78342860  0.95091542  0.45665800    -0.45700
C20         C  0.82293649  0.91562137  0.45060329     0.75900
O21         O  0.78038869  0.94005147  0.41011569    -0.57600
O22         O  0.83119900  0.93125411  0.44628402    -0.47700
O23         O  0.80486119  0.92183307  0.40865801    -0.54000
C24         C  0.82670909  0.96554994  0.40979904     0.86000
O25         O  0.80536242  0.97098247  0.44975618    -0.55900
O26         O  0.80495635  0.91510052  0.44698731    -0.59200
In27       In  0.73716590  0.94636868  0.10578872     1.36900
C28         C  0.74954141  0.93254332  0.13985769     0.78500
O29         O  0.72451834  0.96977672  0.12397469    -0.60000
O30         O  0.70597159  0.95603814  0.10390046    -0.50900
C31         C  0.75725032  0.96845261  0.08066492     0.71200
O32         O  0.75423055  0.95078110  0.07788065    -0.45700
C33         C  0.72347072  0.91475090  0.08909181     0.75900
O34         O  0.76134207  0.93922975  0.12748321    -0.57600
O35         O  0.71612547  0.93119945  0.08656854    -0.47700
O36         O  0.73214793  0.93298790  0.13448872    -0.54000
C37         C  0.70759030  0.96823493  0.11730627     0.86000
O38         O  0.75196979  0.97409394  0.09713740    -0.55900
O39         O  0.73891107  0.91470545  0.09892477    -0.59200
In40       In  0.58801455  0.79815373  0.10266623     1.36900
C41         C  0.60117160  0.78312759  0.13635132     0.78500
O42         O  0.61932183  0.79869730  0.09157293    -0.60000
O43         O  0.60329531  0.82466460  0.09386907    -0.50900
C44         C  0.56800529  0.78427982  0.07203446     0.71200
O45         O  0.56843349  0.77581787  0.08818177    -0.45700
C46         C  0.55957680  0.82024028  0.11622473     0.75900
O47         O  0.60119378  0.77332427  0.12084547    -0.57600
O48         O  0.57586144  0.82675605  0.11107761    -0.47700
O49         O  0.59434533  0.79974136  0.13421708    -0.54000
C50         C  0.61932695  0.81686635  0.08985954     0.86000
O51         O  0.57960606  0.79823245  0.07102528    -0.55900
O52         O  0.55771789  0.80228975  0.11411672    -0.59200
C53         C  0.76962978  0.86698527  0.26819425    -0.01600
C54         C  0.86680220  0.75248041  0.26619982    -0.01600
C55         C  0.67039090  0.75650024  0.26506816    -0.01600
In56       In  0.57344709  0.70900269  0.41539853     1.36900
C57         C  0.59142046  0.73050423  0.38800373     0.78500
O58         O  0.59948967  0.70269287  0.43455109    -0.60000
O59         O  0.58396488  0.67936836  0.42252357    -0.50900
C60         C  0.54929243  0.72178157  0.44378190     0.71200
O61         O  0.56410257  0.73133457  0.43873154    -0.45700
C62         C  0.55169720  0.68876606  0.39117923     0.75900
O63         O  0.57326579  0.72972019  0.38982897    -0.57600
O64         O  0.56842890  0.68328727  0.39615630    -0.47700
O65         O  0.60025693  0.72216279  0.40147801    -0.54000
C66         C  0.59828855  0.68463317  0.43248138     0.86000
O67         O  0.54761311  0.70615810  0.43482641    -0.55900
O68         O  0.54659036  0.70477694  0.39820376    -0.59200
In69       In  0.71850004  0.55789446  0.42057008     1.36900
C70         C  0.74127958  0.57139712  0.39156896     0.78500
O71         O  0.70777219  0.53453894  0.40096492    -0.60000
O72         O  0.69032733  0.55943557  0.40458665    -0.50900
C73         C  0.72889347  0.53256204  0.44863883     0.71200
O74         O  0.73896612  0.54733364  0.44486629    -0.45700
C75         C  0.69975323  0.58615973  0.43913401     0.75900
O76         O  0.73884260  0.55368668  0.39469176    -0.57600
O77         O  0.69211787  0.57018273  0.43496149    -0.47700
O78         O  0.73413871  0.58190002  0.40460021    -0.54000
C79         C  0.69222365  0.54311975  0.39678693     0.86000
O80         O  0.71433449  0.53094124  0.43796531    -0.55900
O81         O  0.71760408  0.58728455  0.43499349    -0.59200
In82       In  0.95347573  0.72306035  0.10665907     1.36900
C83         C  0.94292800  0.73953333  0.14073762     0.78500
O84         O  0.92075918  0.72446081  0.10106338    -0.60000
O85         O  0.93622780  0.69858324  0.09601218    -0.50900
C86         C  0.97462233  0.73833815  0.07722657     0.71200
O87         O  0.98020993  0.73811293  0.09449911    -0.45700
C88         C  0.97493310  0.69250718  0.11617022     0.75900
O89         O  0.93939546  0.74739387  0.12466810    -0.57600
O90         O  0.95962042  0.69132154  0.10634304    -0.47700
O91         O  0.95272053  0.72435737  0.13913548    -0.54000
C92         C  0.91998318  0.70688914  0.09627581     0.86000
O93         O  0.95722731  0.73318176  0.07537562    -0.55900
O94         O  0.97954220  0.70953382  0.12074554    -0.59200
In95       In  0.80256864  0.57611246  0.09910895     1.36900
C96         C  0.78525395  0.58490896  0.13284896     0.78500
O97         O  0.81546353  0.54795817  0.10728007    -0.60000
O98         O  0.83263738  0.57290207  0.11155572    -0.50900
C99         C  0.78713383  0.55559610  0.06974472     0.71200
O100        O  0.77773221  0.55870330  0.08514028    -0.45700
C101        C  0.81664784  0.60935725  0.08631550     0.75900
O102        O  0.79528049  0.57000215  0.13019080    -0.57600
O103        O  0.82590149  0.59373062  0.08529949    -0.47700
O104        O  0.78228208  0.59441612  0.11762437    -0.54000
C105        C  0.83132121  0.55486209  0.11316604     0.86000
O106        O  0.80298827  0.56447809  0.06903174    -0.55900
O107        O  0.79958471  0.60784077  0.09286007    -0.59200
C108        C  0.76502935  0.64268260  0.26611505    -0.01600
In109      In  0.58627428  0.06136176  0.21478256     1.36900
C110        C  0.61814222  0.07871964  0.22973841     0.78500
O111        O  0.60471593  0.03547357  0.20914478    -0.60000
O112        O  0.59265450  0.05007001  0.18512530    -0.50900
C113        C  0.55675075  0.03979708  0.22940061     0.71200
O114        O  0.55505926  0.05748475  0.22573662    -0.45700
C115        C  0.56995247  0.09032987  0.19593944     0.75900
O116        O  0.60543485  0.07108245  0.24063099    -0.57600
O117        O  0.57206034  0.07367546  0.18881927    -0.47700
O118        O  0.61420672  0.07734096  0.21211448    -0.54000
C119        C  0.60343255  0.03665009  0.19103162     0.86000
O120        O  0.57404219  0.03405294  0.22827024    -0.55900
O121        O  0.57514160  0.09192623  0.21340637    -0.59200
In122      In  0.58155915  0.21042289  0.06467745     1.36900
C123        C  0.61036309  0.23306927  0.07793284     0.78500
O124        O  0.56757019  0.20538226  0.09392671    -0.60000
O125        O  0.57237672  0.18159295  0.07543473    -0.50900
C126        C  0.55117895  0.22100233  0.04234763     0.71200
O127        O  0.55601907  0.23074819  0.05701186    -0.45700
C128        C  0.60635664  0.18748059  0.04665806     0.75900
O129        O  0.59643191  0.22762842  0.08840511    -0.57600
O130        O  0.60119467  0.18508959  0.06398390    -0.47700
O131        O  0.60785853  0.22964537  0.06026001    -0.54000
C132        C  0.56689736  0.18731664  0.09181903     0.86000
O133        O  0.56187002  0.20667610  0.03946962    -0.55900
O134        O  0.59863331  0.20173816  0.03839056    -0.59200
C135        C  0.74816478  0.14794261  0.25042207    -0.01600
In136      In  0.89888776  0.21043120  0.43551187     1.36900
C137        C  0.86751838  0.23025722  0.42316092     0.78500
O138        O  0.91017481  0.20647564  0.40482831    -0.60000
O139        O  0.90178253  0.18190102  0.42078674    -0.50900
C140        C  0.93123764  0.22400534  0.45298834     0.71200
O141        O  0.91508238  0.23249336  0.45419089    -0.45700
C142        C  0.88630570  0.18725125  0.46315437     0.75900
O143        O  0.88414714  0.23231295  0.41573087    -0.57600
O144        O  0.88783872  0.18219876  0.44571839    -0.47700
O145        O  0.86742387  0.21935986  0.43757807    -0.54000
C146        C  0.90816055  0.18834881  0.40500582     0.86000
O147        O  0.93109562  0.21003658  0.44140224    -0.55900
O148        O  0.89100205  0.20450223  0.46645300    -0.59200
In149      In  0.90811556  0.06068805  0.27668357     1.36900
C150        C  0.87559529  0.07411805  0.25988359     0.78500
O151        O  0.89089872  0.03464820  0.28573744    -0.60000
O152        O  0.90648347  0.05010812  0.30700286    -0.50900
C153        C  0.93775129  0.04108297  0.25931719     0.71200
O154        O  0.94018560  0.05520206  0.27041235    -0.45700
C155        C  0.91697701  0.09232820  0.29713835     0.75900
O156        O  0.89231856  0.08032787  0.25550920    -0.57600
O157        O  0.91823533  0.07544008  0.30363034    -0.47700
O158        O  0.87581293  0.06023956  0.27150774    -0.54000
C159        C  0.89525277  0.03628345  0.30333444     0.86000
O160        O  0.92018164  0.03852096  0.25511829    -0.55900
O161        O  0.91207508  0.09316667  0.27957631    -0.59200
C162        C  0.73987557  0.25743067  0.35401201    -0.01600
In163      In  0.58303553  0.44497095  0.29433887     1.36900
C164        C  0.61584103  0.42951713  0.27937923     0.78500
O165        O  0.59995396  0.47239272  0.29445966    -0.60000
O166        O  0.58773948  0.46268173  0.32090486    -0.50900
C167        C  0.55153827  0.46392293  0.28114462     0.71200
O168        O  0.56675590  0.46211683  0.27099465    -0.45700
C169        C  0.57252237  0.41481953  0.31559799     0.75900
O170        O  0.60023497  0.43036688  0.26966152    -0.57600
O171        O  0.57918645  0.43035499  0.32226921    -0.47700
O172        O  0.61422626  0.43657535  0.29603070    -0.54000
C173        C  0.59812242  0.47498709  0.31241681     0.86000
O174        O  0.55197406  0.45421817  0.29643485    -0.55900
O175        O  0.57038305  0.41471838  0.29741731    -0.59200
In176      In  0.58337906  0.28935199  0.44430175     1.36900
C177        C  0.61368916  0.26896713  0.43005921     0.78500
O178        O  0.57780948  0.29308858  0.41233056    -0.60000
O179        O  0.57202227  0.31650033  0.43126797    -0.50900
C180        C  0.55182663  0.27584237  0.46368335     0.71200
O181        O  0.56870365  0.26945184  0.46653641    -0.45700
C182        C  0.60020823  0.31312931  0.46936047     0.75900
O183        O  0.59635089  0.26543793  0.42522947    -0.57600
O184        O  0.59646660  0.31790315  0.45222749    -0.47700
O185        O  0.61505012  0.28145869  0.44313456    -0.54000
C186        C  0.57244951  0.31041434  0.41407298     0.86000
O187        O  0.55101703  0.28715588  0.44957845    -0.55900
O188        O  0.59479189  0.29634520  0.47370660    -0.59200
C189        C  0.73955746  0.25460889  0.14670681    -0.01600
In190      In  0.91190134  0.43256946  0.21712610     1.36900
C191        C  0.87768286  0.41997523  0.23053707     0.78500
O192        O  0.89728080  0.46100991  0.21281903    -0.60000
O193        O  0.91257135  0.44865968  0.18925064    -0.50900
C194        C  0.94257011  0.45045777  0.23294252     0.71200
O195        O  0.92641651  0.44926998  0.24163399    -0.45700
C196        C  0.92164015  0.39911429  0.20104615     0.75900
O197        O  0.89184050  0.42284677  0.24186045    -0.57600
O198        O  0.91430628  0.41290333  0.19184788    -0.47700
O199        O  0.88115288  0.42419894  0.21323126    -0.54000
C200        C  0.90238171  0.46247710  0.19538051     0.86000
O201        O  0.94327231  0.44083275  0.21750171    -0.55900
O202        O  0.92506424  0.40258880  0.21866495    -0.59200
In203      In  0.90287936  0.28714699  0.07062217     1.36900
C204        C  0.86874628  0.26905406  0.07741160     0.78500
O205        O  0.91137686  0.28501027  0.10195829    -0.60000
O206        O  0.92360148  0.30740428  0.08521342    -0.50900
C207        C  0.92711542  0.27037397  0.04490580     0.71200
O208        O  0.91041509  0.27635422  0.04071105    -0.45700
C209        C  0.89101472  0.32152141  0.05915518     0.75900
O210        O  0.87103288  0.28227672  0.06529176    -0.57600
O211        O  0.88713951  0.31491173  0.07564332    -0.47700
O212        O  0.88449194  0.26353813  0.08492048    -0.54000
C213        C  0.92169309  0.30006462  0.10171040     0.86000
O214        O  0.93060227  0.27098372  0.06275120    -0.55900
O215        O  0.90156368  0.31070797  0.04887303    -0.59200
C216        C  0.74294008  0.36062104  0.24656109    -0.01600
In217      In  0.93710622  0.41344044  0.79601383     1.36900
C218        C  0.93153983  0.37942781  0.77806352     0.78500
O219        O  0.96219652  0.40976222  0.81621654    -0.60000
O220        O  0.93414489  0.40199626  0.82595304    -0.50900
C221        C  0.96020201  0.44048780  0.78034376     0.71200
O222        O  0.96580721  0.42378736  0.78451536    -0.45700
C223        C  0.90419397  0.42767755  0.80995276     0.75900
O224        O  0.92530524  0.39504554  0.77102651    -0.57600
O225        O  0.92066091  0.43391133  0.81486581    -0.47700
O226        O  0.94199629  0.38182794  0.79265057    -0.54000
C227        C  0.95202690  0.40258484  0.82951485     0.86000
O228        O  0.94204303  0.44258913  0.78158737    -0.55900
O229        O  0.90448551  0.41554371  0.79632832    -0.59200
In230      In  0.79583755  0.42281828  0.95218494     1.36900
C231        C  0.78373475  0.38826748  0.93908647     0.78500
O232        O  0.79638225  0.43197741  0.92120411    -0.60000
O233        O  0.82310559  0.43043263  0.93641668    -0.50900
C234        C  0.77764756  0.45278006  0.96873349     0.71200
O235        O  0.77138914  0.43576403  0.97015500    -0.45700
C236        C  0.81574025  0.41345187  0.98323268     0.75900
O237        O  0.77317033  0.40318208  0.93811077    -0.57600
O238        O  0.82342253  0.42211430  0.96914642    -0.47700
O239        O  0.79989540  0.39123650  0.94695180    -0.54000
C240        C  0.81468251  0.43362201  0.92058180     0.86000
O241        O  0.79142941  0.45458454  0.95691517    -0.55900
O242        O  0.79781276  0.41023110  0.98149855    -0.59200
In243      In  0.96769278  0.09939257  0.74775155     1.36900
C244        C  0.95310867  0.13003861  0.76707810     0.78500
O245        O  0.99137342  0.11783742  0.73495471    -0.60000
O246        O  0.97050984  0.10526548  0.71634621    -0.50900
C247        C  0.99139586  0.07263876  0.76358445     0.71200
O248        O  0.97317211  0.07162289  0.76471864    -0.45700
C249        C  0.93813945  0.08320761  0.72841983     0.75900
O250        O  0.96667958  0.13105884  0.75500118    -0.57600
O251        O  0.95573547  0.07936872  0.72496895    -0.47700
O252        O  0.94833624  0.11294361  0.77109979    -0.54000
C253        C  0.98513242  0.11601346  0.71793934     0.86000
O254        O  0.99716653  0.08824736  0.75658247    -0.55900
O255        O  0.93571456  0.09456205  0.74249740    -0.59200
In256      In  0.81556590  0.08368915  0.59485259     1.36900
C257        C  0.80095816  0.11604545  0.61042974     0.78500
O258        O  0.81900119  0.07312364  0.62589616    -0.60000
O259        O  0.84371319  0.07522932  0.60771319    -0.50900
C260        C  0.79920782  0.05398163  0.57568888     0.71200
O261        O  0.79000589  0.06918043  0.57980140    -0.45700
C262        C  0.83272543  0.09956093  0.56453568     0.75900
O263        O  0.79084184  0.10087805  0.60883495    -0.57600
O264        O  0.84205443  0.09251701  0.57843856    -0.47700
O265        O  0.81803314  0.11433527  0.60420128    -0.54000
C266        C  0.83732472  0.07203186  0.62447278     0.86000
O267        O  0.81575995  0.05321549  0.58333783    -0.55900
O268        O  0.81456190  0.09798181  0.56593856    -0.59200
C269        C  0.86701714  0.24935450  0.77057607    -0.01600
C270        C  0.76142069  0.25697437  0.87440610    -0.01600
C271        C  0.75968833  0.24644680  0.66580870    -0.01600
In272      In  0.56620380  0.40919394  0.72680995     1.36900
C273        C  0.57950187  0.37887360  0.74687423     0.78500
O274        O  0.53715002  0.40080133  0.71510486    -0.60000
O275        O  0.56172299  0.39621513  0.69727536    -0.50900
C276        C  0.54477753  0.43721844  0.74323778     0.71200
O277        O  0.54226519  0.41964084  0.74683671    -0.45700
C278        C  0.59752760  0.42215729  0.70849846     0.75900
O279        O  0.58399089  0.39597608  0.75114089    -0.57600
O280        O  0.58067426  0.42318901  0.70147779    -0.47700
O281        O  0.56712613  0.37762718  0.73362151    -0.54000
C282        C  0.54357214  0.39481841  0.69911286     0.86000
O283        O  0.55956024  0.44049579  0.73301884    -0.55900
O284        O  0.59808418  0.41600360  0.72562976    -0.59200
In285      In  0.72087004  0.40128139  0.57563927     1.36900
C286        C  0.74214504  0.37221982  0.59046898     0.78500
O287        O  0.71718803  0.41561632  0.60516530    -0.60000
O288        O  0.69484451  0.39782776  0.59393686    -0.50900
C289        C  0.73317305  0.43199038  0.55423551     0.71200
O290        O  0.74139209  0.41577596  0.55367857    -0.45700
C291        C  0.69402833  0.38579649  0.55279247     0.75900
O292        O  0.74216650  0.38896627  0.59762018    -0.57600
O293        O  0.69007492  0.39781151  0.56586074    -0.47700
O294        O  0.73345989  0.37119452  0.57455958    -0.54000
C295        C  0.70043719  0.40843434  0.60761024     0.86000
O296        O  0.72004226  0.43281805  0.56684892    -0.55900
O297        O  0.71193543  0.38243707  0.55078186    -0.59200
In298      In  0.73814001  0.09812477  0.95703006     1.36900
C299        C  0.75846940  0.12795849  0.94314430     0.78500
O300        O  0.73424340  0.08091794  0.92954679    -0.60000
O301        O  0.71389135  0.10282751  0.93664041    -0.50900
C302        C  0.75151894  0.06783162  0.97743750     0.71200
O303        O  0.76212739  0.08210432  0.97337396    -0.45700
C304        C  0.71189754  0.11305927  0.98080457     0.75900
O305        O  0.75718749  0.11216296  0.93416500    -0.57600
O306        O  0.70784419  0.10076265  0.96805056    -0.47700
O307        O  0.75177524  0.12733791  0.96007482    -0.54000
C308        C  0.71888853  0.08980856  0.92494713     0.86000
O309        O  0.73494781  0.06877118  0.97005610    -0.55900
O310        O  0.72969648  0.11712738  0.98195990    -0.59200
In311      In  0.58549232  0.08883460  0.81153618     1.36900
C312        C  0.59761228  0.12276068  0.79804956     0.78500
O313        O  0.55568393  0.10023831  0.81682179    -0.60000
O314        O  0.57386773  0.09599042  0.84108374    -0.50900
C315        C  0.56605812  0.06060799  0.79363310     0.71200
O316        O  0.56757751  0.07733334  0.78671536    -0.45700
C317        C  0.61853160  0.07591412  0.82609203     0.75900
O318        O  0.59785239  0.10774855  0.78761678    -0.57600
O319        O  0.60258053  0.07524009  0.83507666    -0.47700
O320        O  0.59117074  0.12012409  0.81484280    -0.54000
C321        C  0.55775569  0.10191029  0.83483169     0.86000
O322        O  0.57605576  0.05795086  0.80857037    -0.55900
O323        O  0.61732410  0.08190394  0.80893574    -0.59200
C324        C  0.65488098  0.25559005  0.77131608    -0.01600
In325      In  0.06203837  0.20756997  0.58079570     1.36900
C326        C  0.07680388  0.22483681  0.61236418     0.78500
O327        O  0.03708291  0.20208366  0.60047567    -0.60000
O328        O  0.05623885  0.17892013  0.59429666    -0.50900
C329        C  0.03775829  0.21644840  0.55164366     0.71200
O330        O  0.04730427  0.22931596  0.56057225    -0.45700
C331        C  0.09362216  0.19588739  0.56230770     0.75900
O332        O  0.06308314  0.23241359  0.60281561    -0.57600
O333        O  0.07953858  0.18491085  0.56610116    -0.47700
O334        O  0.08353853  0.20977251  0.60473025    -0.54000
C335        C  0.04181588  0.18488265  0.60386407     0.86000
O336        O  0.04088178  0.19971999  0.55777681    -0.55900
O337        O  0.09103672  0.21339648  0.56670094    -0.59200
In338      In  0.21208076  0.06709747  0.58213394     1.36900
C339        C  0.22584709  0.08169750  0.61514945     0.78500
O340        O  0.21239394  0.09815869  0.57197717    -0.60000
O341        O  0.18685840  0.08125329  0.56865547    -0.50900
C342        C  0.22879904  0.04691267  0.55330021     0.71200
O343        O  0.23339602  0.04462546  0.57075682    -0.45700
C344        C  0.18906932  0.04065194  0.59806266     0.75900
O345        O  0.23696006  0.07915118  0.60071359    -0.57600
O346        O  0.18259273  0.05564113  0.59011619    -0.47700
O347        O  0.20841699  0.07763721  0.61195358    -0.54000
C348        C  0.19473811  0.09759241  0.56688670     0.86000
O349        O  0.21735729  0.06074546  0.55059181    -0.55900
O350        O  0.20715560  0.03854460  0.59642789    -0.59200
C351        C  0.23746083  0.14293720  0.74713519    -0.01600
In352      In  0.42954177  0.20749793  0.91084544     1.36900
C353        C  0.41379806  0.22009880  0.87779667     0.78500
O354        O  0.45816703  0.20352813  0.89545637    -0.60000
O355        O  0.44554175  0.17983556  0.91007013    -0.50900
C356        C  0.44656620  0.22403106  0.94172072     0.71200
O357        O  0.43357815  0.21134184  0.94287412    -0.45700
C358        C  0.39805925  0.18825591  0.92144973     0.75900
O359        O  0.41714130  0.23147477  0.89176001    -0.57600
O360        O  0.41412758  0.18040993  0.91760518    -0.47700
O361        O  0.41936369  0.20313633  0.88066737    -0.54000
C362        C  0.45929850  0.18592278  0.89974326     0.86000
O363        O  0.44914718  0.23015873  0.92474416    -0.55900
O364        O  0.39838346  0.20650494  0.92116116    -0.59200
In365      In  0.27022050  0.06664540  0.91080656     1.36900
C366        C  0.25276192  0.07600545  0.87721319     0.78500
O367        O  0.27179346  0.09863413  0.91683925    -0.60000
O368        O  0.29249031  0.08034772  0.92996008    -0.50900
C369        C  0.25302760  0.04348630  0.93718617     0.71200
O370        O  0.25530234  0.03882304  0.91975548    -0.45700
C371        C  0.30172379  0.04848392  0.89862215     0.75900
O372        O  0.24560511  0.08085258  0.89338261    -0.57600
O373        O  0.30055217  0.06654644  0.89921085    -0.47700
O374        O  0.26742118  0.06545417  0.87871549    -0.54000
C375        C  0.28710982  0.09739216  0.92679266     0.86000
O376        O  0.25727326  0.06084616  0.94050680    -0.55900
O377        O  0.28690843  0.03981074  0.90485041    -0.59200
C378        C  0.33923073  0.24831809  0.75333029    -0.01600
In379      In  0.27072887  0.44260868  0.60495907     1.36900
C380        C  0.24713754  0.42963124  0.63296768     0.78500
O381        O  0.27452547  0.41731449  0.58454449    -0.60000
O382        O  0.29190655  0.41895110  0.60981402    -0.50900
C383        C  0.26409534  0.46572086  0.57441454     0.71200
O384        O  0.28024892  0.45843994  0.57848372    -0.45700
C385        C  0.29559916  0.46453311  0.62390313     0.75900
O386        O  0.24826233  0.42151204  0.61665549    -0.57600
O387        O  0.30053477  0.44932674  0.61516928    -0.47700
O388        O  0.25545260  0.44571576  0.63357235    -0.54000
C389        C  0.28777566  0.40978037  0.59464080     0.86000
O390        O  0.25049855  0.46024024  0.58549162    -0.55900
O391        O  0.27780317  0.46860504  0.62268855    -0.59200
In392      In  0.42619638  0.30018999  0.59582207     1.36900
C393        C  0.41020496  0.28436711  0.62751620     0.78500
O394        O  0.45383819  0.30181671  0.61303036    -0.60000
O395        O  0.44061249  0.32782093  0.60391660    -0.50900
C396        C  0.44679406  0.28864515  0.56460299     0.71200
O397        O  0.44284569  0.27722812  0.57830797    -0.45700
C398        C  0.39371130  0.31660126  0.58299857     0.75900
O399        O  0.41368050  0.27440020  0.61249199    -0.57600
O400        O  0.40867900  0.32585755  0.58781089    -0.47700
O401        O  0.41537925  0.30168604  0.62605967    -0.54000
C402        C  0.45430672  0.31999983  0.61304941     0.86000
O403        O  0.43894563  0.30487056  0.56648683    -0.55900
O404        O  0.39554367  0.29851847  0.58393163    -0.59200
C405        C  0.13019962  0.24466978  0.74894739    -0.01600
In406      In  0.05139281  0.28473051  0.91346095     1.36900
C407        C  0.06476291  0.27129590  0.87940671     0.78500
O408        O  0.02394581  0.29247738  0.89832684    -0.60000
O409        O  0.03674489  0.31315846  0.91697248    -0.50900
C410        C  0.03100149  0.26764243  0.94163862     0.71200
O411        O  0.02855144  0.26355988  0.92406442    -0.45700
C412        C  0.08268978  0.30369607  0.92546968     0.75900
O413        O  0.06522638  0.26109570  0.89455084    -0.57600
O414        O  0.06749624  0.31154398  0.91918643    -0.47700
O415        O  0.05731118  0.28760852  0.88201904    -0.54000
C416        C  0.02314067  0.30917407  0.90552498     0.86000
O417        O  0.04575252  0.27789385  0.94466889    -0.55900
O418        O  0.08201287  0.28546751  0.92582755    -0.59200
In419      In  0.20419909  0.43191170  0.92155938     1.36900
C420        C  0.21864483  0.42236497  0.88653642     0.78500
O421        O  0.20418606  0.39955692  0.92454050    -0.60000
O422        O  0.18158438  0.41580912  0.93773238    -0.50900
C423        C  0.22292323  0.45082701  0.95000160     0.71200
O424        O  0.22518695  0.45469627  0.93236789    -0.45700
C425        C  0.17539098  0.45607059  0.91346157     0.75900
O426        O  0.22783002  0.41891780  0.90195973    -0.57600
O427        O  0.17265964  0.43849087  0.91689726    -0.47700
O428        O  0.20298490  0.43127837  0.88928049    -0.54000
C429        C  0.18824579  0.39938685  0.93364992     0.86000
O430        O  0.21324395  0.43573029  0.95282142    -0.55900
O431        O  0.19290281  0.46126857  0.91448927    -0.59200
C432        C  0.23343270  0.35355200  0.75780107    -0.01600
In433      In  0.21306660  0.58483448  0.07386559     1.36900
C434        C  0.23371699  0.61650636  0.08199779     0.78500
O435        O  0.20107181  0.59520404  0.04586462    -0.60000
O436        O  0.18493305  0.60081216  0.07134186    -0.50900
C437        C  0.22401462  0.55339060  0.05350606     0.71200
O438        O  0.23566311  0.56700635  0.05698576    -0.45700
C439        C  0.19638447  0.57423924  0.10682504     0.75900
O440        O  0.22641437  0.61314269  0.06572606    -0.57600
O441        O  0.18724515  0.57781772  0.09150291    -0.47700
O442        O  0.23292624  0.60236057  0.09336874    -0.54000
C443        C  0.18624874  0.60290915  0.05333640     0.86000
O444        O  0.20791206  0.55535217  0.06183414    -0.55900
O445        O  0.21468538  0.57510948  0.10512017    -0.59200
In446      In  0.06470720  0.58132603  0.22112440     1.36900
C447        C  0.07343619  0.61660268  0.23422886     0.78500
O448        O  0.09692021  0.57984054  0.22621407    -0.60000
O449        O  0.08500853  0.56574828  0.20156640    -0.50900
C450        C  0.04469036  0.55308887  0.23888786     0.71200
O451        O  0.04146508  0.57072123  0.24184330    -0.45700
C452        C  0.04197915  0.59153819  0.19179864     0.75900
O453        O  0.07346641  0.60213676  0.24536788    -0.57600
O454        O  0.05868468  0.58454003  0.18924351    -0.47700
O455        O  0.06840017  0.61275201  0.21723075    -0.54000
C456        C  0.10003065  0.57085557  0.21062873     0.86000
O457        O  0.05939579  0.54997398  0.22850677    -0.55900
O458        O  0.03648819  0.59166662  0.20918622    -0.59200
C459        C  0.13854145  0.74747917  0.24443071    -0.01600
In460      In  0.20113673  0.91774718  0.43197544     1.36900
C461        C  0.21357883  0.88393325  0.41761494     0.78500
O462        O  0.20173197  0.90218268  0.45998888    -0.60000
O463        O  0.17428735  0.90997311  0.44857797    -0.50900
C464        C  0.21582354  0.94889584  0.44990244     0.71200
O465        O  0.22650203  0.93520008  0.44404704    -0.45700
C466        C  0.18476742  0.93050717  0.39984333     0.75900
O467        O  0.22542539  0.89686336  0.42304493    -0.57600
O468        O  0.17545260  0.92722885  0.41519321    -0.47700
O469        O  0.19602984  0.88878906  0.41920103    -0.54000
C470        C  0.18351147  0.90141292  0.46171278     0.86000
O471        O  0.19821473  0.94693121  0.44551360    -0.55900
O472        O  0.20298199  0.92858508  0.40134369    -0.59200
In473      In  0.05893530  0.90563148  0.28110480     1.36900
C474        C  0.06614140  0.87448157  0.25919010     0.78500
O475        O  0.08149105  0.92916207  0.28589356    -0.60000
O476        O  0.08840083  0.90055450  0.29348587    -0.50900
C477        C  0.03480206  0.93429223  0.26997110     0.71200
O478        O  0.04488279  0.92480689  0.25791608    -0.45700
C479        C  0.04282436  0.89074732  0.31248170     0.75900
O480        O  0.07541800  0.89007182  0.25730213    -0.57600
O481        O  0.05858828  0.89992073  0.31296234    -0.47700
O482        O  0.05150405  0.87593305  0.27000731    -0.54000
C483        C  0.09374827  0.91786402  0.29328249     0.86000
O484        O  0.03747401  0.92911829  0.28712301    -0.55900
O485        O  0.03510422  0.88980529  0.29601401    -0.59200
C486        C  0.23597306  0.75130669  0.35656765    -0.01600
In487      In  0.42705980  0.59665261  0.29287883     1.36900
C488        C  0.41078785  0.62871366  0.27769782     0.78500
O489        O  0.39639997  0.58497672  0.29565459    -0.60000
O490        O  0.41411588  0.58729986  0.32060483    -0.50900
C491        C  0.44751123  0.56704085  0.27732081     0.71200
O492        O  0.43326005  0.56472578  0.28848022    -0.45700
C493        C  0.45531013  0.61178234  0.31402931     0.75900
O494        O  0.41877455  0.62776691  0.29392317    -0.57600
O495        O  0.45546514  0.61180884  0.29581029    -0.47700
O496        O  0.41107460  0.61287286  0.26853734    -0.54000
C497        C  0.39772892  0.58290164  0.31377370     0.86000
O498        O  0.44976915  0.58428933  0.27215821    -0.55900
O499        O  0.44087659  0.60334898  0.32141871    -0.59200
In500      In  0.28142337  0.59390691  0.44571124     1.36900
C501        C  0.26558914  0.62530537  0.42850459     0.78500
O502        O  0.29291232  0.61660253  0.46548055    -0.60000
O503        O  0.31226278  0.59466092  0.45633177    -0.50900
C504        C  0.26520091  0.56864551  0.47085237     0.71200
O505        O  0.26600973  0.56555552  0.45291066    -0.45700
C506        C  0.29698456  0.57573767  0.41562192     0.75900
O507        O  0.25538763  0.61393270  0.43865389    -0.57600
O508        O  0.30537147  0.57713726  0.43172426    -0.47700
O509        O  0.28305163  0.62017996  0.42721387    -0.54000
C510        C  0.30991311  0.60988783  0.46600070     0.86000
O511        O  0.27034846  0.58543565  0.47535690    -0.55900
O512        O  0.27978932  0.58212820  0.41539694    -0.59200
C513        C  0.24209121  0.75051685  0.13934063    -0.01600
In514      In  0.27503199  0.91150784  0.05953805     1.36900
C515        C  0.25910574  0.87779414  0.07039848     0.78500
O516        O  0.28505851  0.89895725  0.03103835    -0.60000
O517        O  0.30591823  0.90614987  0.05224336    -0.50900
C518        C  0.25949331  0.94169339  0.04028483     0.71200
O519        O  0.25345253  0.92468416  0.03798746    -0.45700
C520        C  0.29169687  0.92284787  0.09240205     0.75900
O521        O  0.25025325  0.89366296  0.07272121    -0.57600
O522        O  0.29907331  0.92501374  0.07588888    -0.47700
O523        O  0.27517354  0.87950603  0.06196670    -0.54000
C524        C  0.30270414  0.89885190  0.03591901     0.86000
O525        O  0.27154824  0.94321401  0.05374930    -0.55900
O526        O  0.27477483  0.91573130  0.09226752    -0.59200
In527      In  0.42949182  0.90941765  0.21015274     1.36900
C528        C  0.41543528  0.87815016  0.22914413     0.78500
O529        O  0.39923480  0.92190585  0.20593610    -0.60000
O530        O  0.41357815  0.90927838  0.18204872    -0.50900
C531        C  0.44818099  0.94183114  0.22247175     0.71200
O532        O  0.44489189  0.92772325  0.23352092    -0.45700
C533        C  0.45857852  0.89413906  0.19009356     0.75900
O534        O  0.40979809  0.89504823  0.23317719    -0.57600
O535        O  0.44380619  0.90148512  0.18227628    -0.47700
O536        O  0.42880084  0.87782726  0.21678531    -0.54000
C537        C  0.39847179  0.91746409  0.18821837     0.86000
O538        O  0.44059632  0.93976364  0.20611283    -0.55900
O539        O  0.45864284  0.89510323  0.20832456    -0.59200
C540        C  0.33746326  0.75396150  0.24645396    -0.01600
In541      In  0.42700740  0.94849526  0.81143106     1.36900
C542        C  0.39784556  0.93313347  0.79074378     0.78500
O543        O  0.43206564  0.93448735  0.83971643    -0.60000
O544        O  0.44508068  0.92155644  0.81507090    -0.50900
C545        C  0.45614814  0.97089777  0.79905748     0.71200
O546        O  0.44953265  0.95733406  0.78880107    -0.45700
C547        C  0.40466714  0.97126966  0.83219745     0.75900
O548        O  0.40251480  0.95058703  0.78951967    -0.57600
O549        O  0.40766158  0.97372226  0.81440728    -0.47700
O550        O  0.40933354  0.92338281  0.80085990    -0.54000
C551        C  0.44200788  0.92072412  0.83310992     0.86000
O552        O  0.44858303  0.97194943  0.81551925    -0.55900
O553        O  0.41328373  0.95700883  0.83940666    -0.59200
In554      In  0.42846602  0.79561879  0.95127357     1.36900
C555        C  0.39768737  0.77778293  0.93458273     0.78500
O556        O  0.40552451  0.80119759  0.97341831    -0.60000
O557        O  0.41717955  0.82504687  0.95821213    -0.50900
C558        C  0.45692377  0.78410995  0.97600987     0.71200
O559        O  0.45361759  0.77517213  0.96036453    -0.45700
C560        C  0.44771394  0.81382320  0.92351452     0.75900
O561        O  0.40572192  0.77132168  0.94968233    -0.57600
O562        O  0.44272557  0.82158324  0.93924555    -0.47700
O563        O  0.40665162  0.79177711  0.92730052    -0.54000
C564        C  0.40518898  0.81914683  0.97066127     0.86000
O565        O  0.44515735  0.79759890  0.97897737    -0.55900
O566        O  0.44390262  0.79603637  0.92227719    -0.59200
In567      In  0.09955387  0.71745679  0.94396815     1.36900
C568        C  0.13311845  0.73056457  0.92911000     0.78500
O569        O  0.11814788  0.71259513  0.96980514    -0.60000
O570        O  0.10037001  0.68965578  0.95972510    -0.50900
C571        C  0.07063306  0.73226639  0.96577399     0.71200
O572        O  0.08679779  0.74071587  0.96377040    -0.45700
C573        C  0.08747431  0.70103131  0.91155521     0.75900
O574        O  0.11884285  0.74177848  0.93219633    -0.57600
O575        O  0.09504744  0.69205500  0.92538374    -0.47700
O576        O  0.12986158  0.71339039  0.93372041    -0.54000
C577        C  0.11300313  0.69527786  0.97160289     0.86000
O578        O  0.06878837  0.71776370  0.95498147    -0.55900
O579        O  0.08482991  0.71884818  0.91456154    -0.59200
In580      In  0.08734533  0.56584630  0.80436353     1.36900
C581        C  0.12310081  0.57773904  0.79384780     0.78500
O582        O  0.08157299  0.59718069  0.79812160    -0.60000
O583        O  0.07253692  0.58538647  0.82499227    -0.50900
C584        C  0.05910155  0.54610689  0.78585293     0.71200
O585        O  0.07685707  0.54434429  0.78152396    -0.45700
C586        C  0.09579284  0.54127022  0.83239258     0.75900
O587        O  0.10946958  0.57564933  0.78174808    -0.57600
O588        O  0.08818548  0.55746040  0.83565426    -0.47700
O589        O  0.11850094  0.57279513  0.81070922    -0.54000
C590        C  0.07443758  0.60022099  0.81469178     0.86000
O591        O  0.05597189  0.55910322  0.79816643    -0.55900
O592        O  0.09844277  0.53756347  0.81471909    -0.59200
C593        C  0.26655889  0.75635478  0.87023548    -0.01600
C594        C  0.27259397  0.86126010  0.76636051    -0.01600
C595        C  0.25456832  0.64448123  0.77294939    -0.01600
In596      In  0.41125264  0.56137493  0.72812316     1.36900
C597        C  0.38373819  0.57722674  0.75074202     0.78500
O598        O  0.42989150  0.58777386  0.72198623    -0.60000
O599        O  0.41045901  0.57766610  0.70058653    -0.50900
C600        C  0.44168238  0.53889350  0.73803458     0.71200
O601        O  0.43377667  0.53923517  0.72177086    -0.45700
C602        C  0.38857930  0.53863259  0.70720974     0.75900
O603        O  0.39678944  0.58698800  0.74257425    -0.57600
O604        O  0.40006742  0.55077981  0.69998776    -0.47700
O605        O  0.38625048  0.55933230  0.74924799    -0.54000
C606        C  0.42311836  0.58991924  0.70513295     0.86000
O607        O  0.43433683  0.55077747  0.74982308    -0.55900
O608        O  0.38878558  0.53797745  0.72541824    -0.59200
In609      In  0.42074855  0.70688002  0.57258923     1.36900
C610        C  0.38794568  0.72120489  0.58870088     0.78500
O611        O  0.40634496  0.70183231  0.54402797    -0.60000
O612        O  0.41277246  0.67763882  0.56149348    -0.50900
C613        C  0.44976716  0.72212508  0.55084741     0.71200
O614        O  0.43319097  0.72985606  0.55215218    -0.45700
C615        C  0.43441982  0.68987149  0.60424277     0.75900
O616        O  0.38939328  0.70503727  0.58060647    -0.57600
O617        O  0.43338865  0.68166195  0.58800691    -0.47700
O618        O  0.40339770  0.73113320  0.58770433    -0.54000
C619        C  0.40539561  0.68381502  0.54606237     0.86000
O620        O  0.45192530  0.70826939  0.56232047    -0.55900
O621        O  0.42994132  0.70753199  0.60404595    -0.59200
In622      In  0.11131955  0.94227068  0.73169168     1.36900
C623        C  0.14405960  0.92945227  0.74883629     0.78500
O624        O  0.10132702  0.91114970  0.73247357    -0.60000
O625        O  0.09568443  0.92766986  0.70746687    -0.50900
C626        C  0.08369494  0.96290519  0.75061080     0.71200
O627        O  0.10068218  0.96096250  0.75706460    -0.45700
C628        C  0.12518049  0.96354370  0.70257313     0.75900
O629        O  0.14316844  0.94472990  0.73914860    -0.57600
O630        O  0.12314828  0.94553202  0.70163751    -0.47700
O631        O  0.12782854  0.92127485  0.75087719    -0.54000
C632        C  0.09449656  0.91147517  0.71555994     0.86000
O633        O  0.08079998  0.95337164  0.73546762    -0.55900
O634        O  0.12032751  0.97071606  0.71864052    -0.59200
In635      In  0.10271723  0.79053840  0.58387932     1.36900
C636        C  0.13201727  0.76951633  0.59936788     0.78500
O637        O  0.11909315  0.79506795  0.55606523    -0.60000
O638        O  0.11134671  0.81941772  0.57290226    -0.50900
C639        C  0.07062467  0.77980574  0.56393986     0.71200
O640        O  0.08338885  0.76777565  0.56913405    -0.45700
C641        C  0.09335429  0.81154861  0.61471432     0.75900
O642        O  0.13209152  0.77558610  0.58226665    -0.57600
O643        O  0.10707614  0.81554580  0.60329715    -0.47700
O644        O  0.11589334  0.77194117  0.60775512    -0.54000
C645        C  0.11958323  0.81314244  0.55787216     0.86000
O646        O  0.07394929  0.79656234  0.56988254    -0.55900
O647        O  0.08398431  0.79648170  0.61034441    -0.59200
C648        C  0.26350440  0.74942691  0.66690005    -0.01600
C649        C  0.18467799  0.75454316  0.60883548    -0.13500
C650        C  0.18596640  0.75662163  0.62897122     0.16900
C651        C  0.16884764  0.76113477  0.63940699     0.03200
C652        C  0.15109078  0.76360626  0.62960572    -0.12000
C653        C  0.14994058  0.76232722  0.60934692    -0.03000
C654        C  0.16699541  0.75728028  0.59903035     0.02500
C655        C  0.20537888  0.75449854  0.63860426     0.09300
N656        N  0.16951827  0.76488993  0.65972333     0.65700
H657        H  0.13840450  0.76794473  0.63783088     0.18600
N658        N  0.16666021  0.75491542  0.57853418     0.76100
H659        H  0.19758461  0.75088985  0.60061019     0.10100
C660        C  0.20933066  0.73961449  0.65173217     0.03800
C661        C  0.22768735  0.73819831  0.66046007    -0.04900
C662        C  0.24324380  0.75098068  0.65617080    -0.23300
C663        C  0.23839802  0.76686391  0.64392512     0.13000
C664        C  0.22003315  0.76802279  0.63500428    -0.12500
N665        N  0.19487971  0.72556668  0.65632391     0.64700
H666        H  0.22908640  0.72708990  0.67114601     0.12600
N667        N  0.25105073  0.78304780  0.64179331     0.61300
H668        H  0.21694706  0.78012204  0.62565764     0.08700
O669        O  0.16044361  0.73938403  0.57136240    -0.40100
O670        O  0.17546869  0.76679744  0.56790076    -0.39300
O671        O  0.17881799  0.77929935  0.66587840    -0.39300
O672        O  0.15793203  0.75629381  0.67091913    -0.37000
O673        O  0.26230909  0.78381550  0.62743652    -0.37900
O674        O  0.24668163  0.79853572  0.65034524    -0.34100
O675        O  0.19220427  0.71159233  0.64496182    -0.35500
O676        O  0.18822829  0.72469862  0.67330340    -0.39800
C677        C  0.09004786  0.86044767  0.69649460    -0.13500
C678        C  0.08106003  0.86382894  0.67872238     0.16900
C679        C  0.07299824  0.88205749  0.67509316     0.03200
C680        C  0.07608921  0.89715466  0.68820667    -0.12000
C681        C  0.08690520  0.89430752  0.70516856    -0.03000
C682        C  0.09285806  0.87540602  0.70983072     0.02500
C683        C  0.08373589  0.84960533  0.66295019     0.09300
N684        N  0.06312928  0.88585475  0.65740303     0.65700
H685        H  0.07102121  0.91143843  0.68449673     0.18600
N686        N  0.10348886  0.87142037  0.72702999     0.76100
H687        H  0.09604974  0.84634571  0.69948410     0.10100
C688        C  0.10239076  0.84674888  0.65507301     0.03800
C689        C  0.10503446  0.83404814  0.63967222    -0.04900
C690        C  0.08941427  0.82369137  0.63190192    -0.23300
C691        C  0.07074880  0.82602996  0.64014586     0.13000
C692        C  0.06800270  0.83914917  0.65546480    -0.12500
N693        N  0.11877422  0.85713822  0.66225717     0.64700
H694        H  0.11949624  0.83237576  0.63366622     0.12600
N695        N  0.05439800  0.81578912  0.63272527     0.61300
H696        H  0.05360925  0.84121052  0.66148804     0.08700
O697        O  0.12014748  0.86398775  0.72568031    -0.40100
O698        O  0.09466946  0.87097851  0.74302503    -0.39300
O699        O  0.04483557  0.88504716  0.65688724    -0.39300
O700        O  0.07233637  0.89286339  0.64329847    -0.37000
O701        O  0.04942398  0.80007373  0.64037643    -0.37900
O702        O  0.04296931  0.82406039  0.62121530    -0.34100
O703        O  0.13035704  0.84903656  0.67373796    -0.35500
O704        O  0.12336927  0.87303191  0.65474952    -0.39800
C705        C  0.34950558  0.74864959  0.61859199    -0.13500
C706        C  0.33502172  0.73449747  0.62064276     0.16900
C707        C  0.33790910  0.71648815  0.61169778     0.03200
C708        C  0.35490862  0.71288903  0.60106059    -0.12000
C709        C  0.36963249  0.72685892  0.59910098    -0.03000
C710        C  0.36666815  0.74501266  0.60794704     0.02500
C711        C  0.31687617  0.73862144  0.63192657     0.09300
N712        N  0.32403018  0.70136236  0.61396269     0.65700
H713        H  0.35674262  0.69874404  0.59467527     0.18600
N714        N  0.38072428  0.75999933  0.60606297     0.76100
H715        H  0.34741701  0.76265990  0.62519543     0.10100
C716        C  0.31706204  0.73990804  0.65213047     0.03800
C717        C  0.29970571  0.74294357  0.66239511    -0.04900
C718        C  0.28148831  0.74565375  0.65320337    -0.23300
C719        C  0.28135370  0.74301680  0.63255447     0.13000
C720        C  0.29898647  0.73997071  0.62245391    -0.12500
N721        N  0.33482044  0.73784407  0.66254504     0.64700
H722        H  0.30063760  0.74389549  0.67798079     0.12600
N723        N  0.26389103  0.74172117  0.62136702     0.61300
H724        H  0.29863348  0.73801415  0.60692473     0.08700
O725        O  0.39188121  0.76377749  0.61998149    -0.40100
O726        O  0.37953665  0.77161250  0.59214112    -0.39300
O727        O  0.31355242  0.69649236  0.59985875    -0.39300
O728        O  0.32488923  0.69061407  0.62859294    -0.37000
O729        O  0.25343798  0.72689787  0.62279219    -0.37900
O730        O  0.26244144  0.75165849  0.60620859    -0.34100
O731        O  0.34565126  0.75227033  0.66511593    -0.35500
O732        O  0.33830099  0.72239949  0.67142486    -0.39800
C733        C  0.43190560  0.66963988  0.65518105    -0.13500
C734        C  0.44230849  0.65239501  0.65281321     0.16900
C735        C  0.45267246  0.64935501  0.63546433     0.03200
C736        C  0.45094533  0.66245953  0.62023136    -0.12000
C737        C  0.43925953  0.67893061  0.62197842    -0.03000
C738        C  0.43032765  0.68292250  0.63996909     0.02500
C739        C  0.43894127  0.63622372  0.66651373     0.09300
N740        N  0.46440137  0.63256817  0.63285560     0.65700
H741        H  0.45818403  0.65931839  0.60666056     0.18600
N742        N  0.41784469  0.69920232  0.64236491     0.76100
H743        H  0.42361877  0.67205905  0.66829300     0.10100
C744        C  0.44356276  0.63728023  0.68632384     0.03800
C745        C  0.43879148  0.62191233  0.69867782    -0.04900
C746        C  0.42909962  0.60550739  0.69166875    -0.23300
C747        C  0.42456552  0.60454001  0.67176693     0.13000
C748        C  0.42946304  0.61976966  0.65953995    -0.12500
N749        N  0.45311368  0.65380587  0.69408766     0.64700
H750        H  0.44234240  0.62300387  0.71387217     0.12600
N751        N  0.41495046  0.58819269  0.66362767     0.61300
H752        H  0.42539887  0.61889984  0.64445500     0.08700
O753        O  0.40062775  0.69846997  0.63621835    -0.40100
O754        O  0.42285076  0.71279187  0.65340483    -0.39300
O755        O  0.45842223  0.61898125  0.62230360    -0.39300
O756        O  0.48197224  0.63294586  0.63793935    -0.37000
O757        O  0.42484708  0.57493180  0.65592770    -0.37900
O758        O  0.39682036  0.58864285  0.66108453    -0.34100
O759        O  0.44341989  0.66610625  0.70347384    -0.35500
O760        O  0.47140693  0.65409884  0.69493685    -0.39800
C761        C  0.27423103  0.68415935  0.73830065    -0.13500
C762        C  0.25964255  0.68574559  0.72443108     0.16900
C763        C  0.24432712  0.67224606  0.72478851     0.03200
C764        C  0.24327382  0.65841598  0.73958015    -0.12000
C765        C  0.25689880  0.65800615  0.75488089    -0.03000
C766        C  0.27295831  0.67102564  0.75347798     0.02500
C767        C  0.26095829  0.70161978  0.70989020     0.09300
N768        N  0.22932460  0.67272772  0.71059933     0.65700
H769        H  0.23153106  0.64815234  0.73889983     0.18600
N770        N  0.28818206  0.67149021  0.76748224     0.76100
H771        H  0.28674187  0.69359107  0.73763936     0.10100
C772        C  0.26516265  0.72065356  0.71555274     0.03800
C773        C  0.26742285  0.73506559  0.70169508    -0.04900
C774        C  0.26385311  0.73191988  0.68173223    -0.23300
C775        C  0.26169690  0.71215659  0.67612013     0.13000
C776        C  0.25994613  0.69756467  0.69011123    -0.12500
N777        N  0.26665279  0.72586666  0.73550242     0.64700
H778        H  0.27195693  0.74887964  0.70719816     0.12600
N779        N  0.26126518  0.70630650  0.65635345     0.61300
H780        H  0.25822931  0.68279429  0.68536206     0.08700
O781        O  0.28716550  0.68343125  0.78121813    -0.40100
O782        O  0.30459809  0.66479628  0.76286654    -0.39300
O783        O  0.22839888  0.65957594  0.69802513    -0.39300
O784        O  0.21518299  0.68408298  0.71277155    -0.37000
O785        O  0.27717728  0.70259985  0.64804845    -0.37900
O786        O  0.24600384  0.69853418  0.64995486    -0.34100
O787        O  0.28244165  0.73244032  0.74196829    -0.35500
O788        O  0.25145002  0.72717456  0.74563397    -0.39800
C789        C  0.29636256  0.60995801  0.75548425    -0.13500
C790        C  0.30942701  0.61056049  0.77088646     0.16900
C791        C  0.30514039  0.62245373  0.78670400     0.03200
C792        C  0.28795856  0.63321965  0.78707349    -0.12000
C793        C  0.27374877  0.63203468  0.77232693    -0.03000
C794        C  0.27916072  0.62089186  0.75562443     0.02500
C795        C  0.32893859  0.60159596  0.76858054     0.09300
N796        N  0.31858935  0.62442931  0.80226137     0.65700
H797        H  0.28703792  0.64366944  0.79844615     0.18600
N798        N  0.26898648  0.62244740  0.73768551     0.76100
H799        H  0.30021888  0.60196945  0.74255835     0.10100
C800        C  0.33139966  0.58151258  0.76726697     0.03800
C801        C  0.34973766  0.57378989  0.76285181    -0.04900
C802        C  0.36585896  0.58579486  0.75940011    -0.23300
C803        C  0.36350279  0.60589933  0.76166398     0.13000
C804        C  0.34518953  0.61355660  0.76620307    -0.12500
N805        N  0.31531983  0.56880669  0.76999863     0.64700
H806        H  0.35109896  0.55833178  0.76119490     0.12600
N807        N  0.37936981  0.61883611  0.75880419     0.61300
H808        H  0.34349338  0.62904333  0.76714220     0.08700
O809        O  0.25758252  0.60920526  0.73255512    -0.40100
O810        O  0.27593799  0.63334607  0.72484305    -0.39300
O811        O  0.32789354  0.63994253  0.80434423    -0.39300
O812        O  0.31872852  0.61208098  0.81558369    -0.37000
O813        O  0.38118735  0.62741792  0.74286455    -0.37900
O814        O  0.38908808  0.62446128  0.77316545    -0.34100
O815        O  0.30649968  0.56214622  0.75550340    -0.35500
O816        O  0.31227150  0.56159345  0.78643169    -0.39800
C817        C  0.28100149  0.79739069  0.69301855    -0.13500
C818        C  0.26639512  0.79948962  0.70692990     0.16900
C819        C  0.25017589  0.78721292  0.70588860     0.03200
C820        C  0.24934877  0.77278446  0.69173204    -0.12000
C821        C  0.26497252  0.76894380  0.67878947    -0.03000
C822        C  0.28062854  0.78265899  0.67900829     0.02500
C823        C  0.26789544  0.81524220  0.72167435     0.09300
N824        N  0.23497839  0.78821652  0.71997698     0.65700
H825        H  0.23694991  0.76319618  0.69208820     0.18600
N826        N  0.29613886  0.78284564  0.66523043     0.76100
H827        H  0.29289397  0.80760094  0.69282301     0.10100
C828        C  0.28425035  0.81730576  0.73360708     0.03800
C829        C  0.28509583  0.83229445  0.74717519    -0.04900
C830        C  0.27019997  0.84621868  0.74936822    -0.23300
C831        C  0.25301188  0.84304196  0.73792860     0.13000
C832        C  0.25264954  0.82834239  0.72391414    -0.12500
N833        N  0.29989556  0.80380828  0.73274320     0.64700
H834        H  0.29774235  0.83297547  0.75631676     0.12600
N835        N  0.23487814  0.85263373  0.74128449     0.61300
H836        H  0.23978193  0.82668901  0.71510665     0.08700
O837        O  0.29339516  0.79086700  0.64917220    -0.40100
O838        O  0.31333873  0.78166903  0.67137568    -0.39300
O839        O  0.21810165  0.79305700  0.71487143    -0.39300
O840        O  0.23744172  0.78058885  0.73630289    -0.37000
O841        O  0.22697664  0.86146076  0.72747706    -0.37900
O842        O  0.22420089  0.84698548  0.75498302    -0.34100
O843        O  0.31546958  0.80840204  0.72428165    -0.35500
O844        O  0.29974422  0.78943706  0.74383993    -0.20600
C845        C  0.23342901  0.89996986  0.75319272    -0.13500
C846        C  0.21985582  0.89811320  0.76812374     0.16900
C847        C  0.22446786  0.88607508  0.78377510     0.03200
C848        C  0.24188944  0.87554806  0.78377219    -0.12000
C849        C  0.25465043  0.87535713  0.76763650    -0.03000
C850        C  0.25065031  0.88915460  0.75284723     0.02500
C851        C  0.20022231  0.90703588  0.76590256     0.09300
N852        N  0.21140719  0.88407812  0.79972671     0.65700
H853        H  0.24494415  0.86737337  0.79660740     0.18600
N854        N  0.26345623  0.89210440  0.73685941     0.76100
H855        H  0.23024187  0.90924680  0.74106167     0.10100
C856        C  0.19770729  0.92671187  0.76145213     0.03800
C857        C  0.17920616  0.93378804  0.75670138    -0.04900
C858        C  0.16282974  0.92167493  0.75628456    -0.23300
C859        C  0.16536407  0.90204128  0.76106577     0.13000
C860        C  0.18387579  0.89500341  0.76571859    -0.12500
N861        N  0.21382951  0.93967146  0.76147257     0.64700
H862        H  0.17773064  0.94886312  0.75300392     0.12600
N863        N  0.14978472  0.88857241  0.75955263     0.61300
H864        H  0.18561646  0.87972731  0.76831026     0.08700
O865        O  0.27576213  0.90552432  0.73795982    -0.40100
O866        O  0.25817489  0.88650790  0.72033959    -0.39300
O867        O  0.20238582  0.86844224  0.80209703    -0.39300
O868        O  0.21159714  0.89639293  0.81314934    -0.37000
O869        O  0.15118826  0.87495640  0.74753684    -0.37900
O870        O  0.13759723  0.88731917  0.77313441    -0.34100
O871        O  0.21922706  0.94742166  0.74589110    -0.35500
O872        O  0.22028994  0.94595388  0.77731010    -0.39800
C873        C  0.25968525  0.80688812  0.84589094    -0.13500
C874        C  0.27509727  0.80674608  0.83269909     0.16900
C875        C  0.29028509  0.79345807  0.83575408     0.03200
C876        C  0.28780612  0.77852604  0.84923094    -0.12000
C877        C  0.27016395  0.77604789  0.85953997    -0.03000
C878        C  0.25761137  0.79253632  0.85998403     0.02500
C879        C  0.27489238  0.82073089  0.81628912     0.09300
N880        N  0.30785417  0.79418855  0.82470354     0.65700
H881        H  0.29903858  0.76768750  0.85014213     0.18600
N882        N  0.24406053  0.79630203  0.87533717     0.76100
H883        H  0.24939539  0.81867833  0.84558591     0.10100
C884        C  0.25885766  0.82194942  0.80381564     0.03800
C885        C  0.25888973  0.83505904  0.78853433    -0.04900
C886        C  0.27445679  0.84786016  0.78483525    -0.23300
C887        C  0.29119311  0.84561595  0.79708726     0.13000
C888        C  0.29073983  0.83279537  0.81281194    -0.12500
N889        N  0.24253587  0.80942074  0.80595704     0.64700
H890        H  0.24635409  0.83512979  0.77928907     0.12600
N891        N  0.30953834  0.85448421  0.79331772     0.61300
H892        H  0.30332135  0.83187474  0.82210536     0.08700
O893        O  0.22694878  0.80132710  0.87125024    -0.40100
O894        O  0.25052790  0.80065999  0.89178843    -0.39300
O895        O  0.32364814  0.79824977  0.83296093    -0.39300
O896        O  0.30804553  0.78847843  0.80739086    -0.37000
O897        O  0.31708119  0.86478132  0.80633431    -0.37900
O898        O  0.32045993  0.84724725  0.78056051    -0.34100
O899        O  0.22738118  0.81562035  0.81416476    -0.35500
O900        O  0.24151229  0.79448884  0.79559945    -0.39800
C901        C  0.26443887  0.72037444  0.82566554    -0.13500
C902        C  0.25760991  0.70351903  0.83439316     0.16900
C903        C  0.25591111  0.70351218  0.85468513     0.03200
C904        C  0.25989952  0.72040395  0.86528918    -0.12000
C905        C  0.26496977  0.73821250  0.85642890    -0.03000
C906        C  0.26694459  0.73768058  0.83577343     0.02500
C907        C  0.25233765  0.68689671  0.82132363     0.09300
N908        N  0.24973120  0.68676040  0.86489838     0.65700
H909        H  0.25852740  0.71970058  0.88085708     0.18600
N910        N  0.27019496  0.75419316  0.82399071     0.76100
H911        H  0.26694441  0.72050008  0.81021327     0.10100
C912        C  0.24347793  0.69059359  0.80341279     0.03800
C913        C  0.24467528  0.67707396  0.78856015    -0.04900
C914        C  0.25228920  0.65826121  0.79126581    -0.23300
C915        C  0.25554606  0.65308800  0.81102121     0.13000
C916        C  0.25763325  0.66773650  0.82518681    -0.12500
N917        N  0.23284267  0.70800557  0.80016072     0.64700
H918        H  0.23903512  0.68159423  0.77475624     0.12600
N919        N  0.25720445  0.63340771  0.81700755     0.61300
H920        H  0.26331068  0.66397032  0.83918798     0.08700
O921        O  0.25600925  0.76491468  0.82000987    -0.40100
O922        O  0.28467334  0.75422316  0.81275853    -0.39300
O923        O  0.26191099  0.67746689  0.87475772    -0.39300
O924        O  0.23183654  0.68392462  0.86760799    -0.37000
O925        O  0.24322802  0.62209637  0.81399014    -0.37900
O926        O  0.26982195  0.62876506  0.82934640    -0.34100
O927        O  0.23669662  0.71835077  0.78569480    -0.35500
O928        O  0.21746475  0.71109985  0.80963218    -0.39800
C929        C  0.21483771  0.60275091  0.77505744    -0.13500
C930        C  0.19773253  0.61357400  0.77591221     0.16900
C931        C  0.19914531  0.63364212  0.77458937     0.03200
C932        C  0.21735926  0.64244287  0.77271724    -0.12000
C933        C  0.23518758  0.63207053  0.77257675    -0.03000
C934        C  0.23337763  0.61138723  0.77354587     0.02500
C935        C  0.17877844  0.60378690  0.77983956     0.09300
N936        N  0.18228405  0.64552137  0.77642341     0.65700
H937        H  0.21731660  0.65789827  0.77162963     0.18600
N938        N  0.24958913  0.59843988  0.77372979     0.76100
H939        H  0.21382502  0.58722618  0.77625345     0.10100
C940        C  0.16380766  0.60272337  0.76598444     0.03800
C941        C  0.14594211  0.59401348  0.77070529    -0.04900
C942        C  0.14260183  0.58603128  0.78905604    -0.23300
C943        C  0.15779809  0.58692452  0.80282302     0.13000
C944        C  0.17556077  0.59570405  0.79809721    -0.12500
N945        N  0.16674174  0.60981059  0.74684504     0.64700
H946        H  0.13463353  0.59345436  0.75988069     0.12600
N947        N  0.15552639  0.57902216  0.82173280     0.61300
H948        H  0.18690050  0.59641425  0.80889441     0.08700
O949        O  0.24984741  0.58461140  0.76184616    -0.40100
O950        O  0.25971543  0.59701841  0.78879666    -0.39300
O951        O  0.17694519  0.65101494  0.79299709    -0.39300
O952        O  0.17576170  0.65402944  0.76174025    -0.37000
O953        O  0.16237080  0.56258366  0.82537047    -0.37900
O954        O  0.15007782  0.58973914  0.83546487    -0.34100
O955        O  0.17765800  0.60064125  0.73539893    -0.35500
O956        O  0.15558075  0.62259923  0.74026707    -0.39800
C957        C  0.18435700  0.72840559  0.90789970    -0.13500
C958        C  0.18985856  0.74778731  0.90799188     0.16900
C959        C  0.17645427  0.76171227  0.91453636     0.03200
C960        C  0.15792809  0.75604045  0.92111996    -0.12000
C961        C  0.15238134  0.73654997  0.92111558    -0.03000
C962        C  0.16588183  0.72268942  0.91417736     0.02500
C963        C  0.20911117  0.75297623  0.89965685     0.09300
N964        N  0.18148882  0.78164308  0.91460440     0.65700
H965        H  0.14792626  0.76690740  0.92637770     0.18600
N966        N  0.16087574  0.70276344  0.91267359     0.76100
H967        H  0.19437450  0.71762626  0.90244812     0.10100
C968        C  0.22636716  0.75105222  0.91024826     0.03800
C969        C  0.24454450  0.75271175  0.90099317    -0.04900
C970        C  0.24622784  0.75633346  0.88088444    -0.23300
C971        C  0.22830448  0.75752735  0.87035330     0.13000
C972        C  0.21035081  0.75636395  0.87989040    -0.12500
N973        N  0.22561238  0.74628729  0.93029364     0.64700
H974        H  0.25722088  0.75011219  0.90971207     0.12600
N975        N  0.22769204  0.75850049  0.84973236     0.61300
H976        H  0.19712221  0.75693219  0.87146185     0.08700
O977        O  0.16813379  0.69083134  0.92430337    -0.40100
O978        O  0.15237472  0.69671266  0.89772347    -0.39300
O979        O  0.17740354  0.79194333  0.90020527    -0.39300
O980        O  0.18701548  0.78952156  0.93007704    -0.37000
O981        O  0.22437525  0.74314539  0.84053280    -0.37900
O982        O  0.22306398  0.77423016  0.84193265    -0.34100
O983        O  0.21967432  0.75854311  0.94243165    -0.35500
O984        O  0.22884875  0.72922804  0.93559514    -0.39800
C985        C  0.06197764  0.68097396  0.86710297    -0.13500
C986        C  0.07550455  0.66695924  0.86127628     0.16900
C987        C  0.09334991  0.66554492  0.87101581     0.03200
C988        C  0.09706963  0.67740606  0.88685150    -0.12000
C989        C  0.08338122  0.69098848  0.89319811    -0.03000
C990        C  0.06593136  0.69320386  0.88284807     0.02500
C991        C  0.07060966  0.65259214  0.84625251     0.09300
N992        N  0.10737637  0.65130045  0.86566618     0.65700
H993        H  0.11061022  0.67562354  0.89459193     0.18600
N994        N  0.05168939  0.70693796  0.88880934     0.76100
H995        H  0.04819465  0.68210871  0.85969513     0.10100
C996        C  0.05818620  0.63713372  0.85067877     0.03800
C997        C  0.05800181  0.62084243  0.83880536    -0.04900
C998        C  0.07021159  0.61956213  0.82258393    -0.23300
C999        C  0.08104964  0.63590244  0.81697673     0.13000
C1000       C  0.08121273  0.65225296  0.82891189    -0.12500
N1001       N  0.04755822  0.63674979  0.86842284     0.64700
H1002       H  0.04948464  0.60848969  0.84324426     0.12600
N1003       N  0.09361788  0.63537983  0.80051405     0.61300
H1004       H  0.09081791  0.66411176  0.82542070     0.08700
O1005       O  0.03744453  0.70157798  0.89895865    -0.40100
O1006       O  0.05149043  0.72339997  0.88116564    -0.39300
O1007       O  0.12252913  0.65621567  0.85665222    -0.39300
O1008       O  0.10593285  0.63442544  0.87221076    -0.37000
O1009       O  0.08812175  0.64279724  0.78484742    -0.37900
O1010       O  0.11117560  0.63060574  0.80251714    -0.34100
O1011       O  0.02952823  0.63994895  0.86833011    -0.35500
O1012       O  0.05532421  0.62971151  0.88329376    -0.39800
C1013       C  0.35346224  0.77149098  0.90172959    -0.13500
C1014       C  0.33981301  0.76315167  0.91416579     0.16900
C1015       C  0.34563394  0.75850607  0.93311794     0.03200
C1016       C  0.36482315  0.76233902  0.93923824    -0.12000
C1017       C  0.37851177  0.77097241  0.92680163    -0.03000
C1018       C  0.37251234  0.77542466  0.90776013     0.02500
C1019       C  0.31996540  0.75897870  0.90641498     0.09300
N1020       N  0.33221533  0.75003976  0.94635622     0.65700
H1021       H  0.36881743  0.75912253  0.95399951     0.18600
N1022       N  0.38560161  0.78379798  0.89414170     0.76100
H1023       H  0.34927737  0.77494221  0.88706176     0.10100
C1024       C  0.30436333  0.77172223  0.90907796     0.03800
C1025       C  0.28716853  0.76935813  0.89840844    -0.04900
C1026       C  0.28463464  0.75462424  0.88439109    -0.23300
C1027       C  0.30061034  0.74136853  0.88240618     0.13000
C1028       C  0.31758958  0.74366823  0.89350828    -0.12500
N1029       N  0.30625003  0.78807947  0.92148586     0.64700
H1030       H  0.27594210  0.77985961  0.90056061     0.12600
N1031       N  0.30120902  0.72643757  0.86818812     0.61300
H1032       H  0.32969214  0.73397801  0.89103041     0.08700
O1033       O  0.38122416  0.79957166  0.88627035    -0.40100
O1034       O  0.39886580  0.77353427  0.88685216    -0.39300
O1035       O  0.33150421  0.73196533  0.94791926    -0.39300
O1036       O  0.32413470  0.76044052  0.95900487    -0.37000
O1037       O  0.30771796  0.73026063  0.85157881    -0.37900
O1038       O  0.30113191  0.70913750  0.87372072    -0.34100
O1039       O  0.31216952  0.80382854  0.91460001    -0.35500
O1040       O  0.29834660  0.78788308  0.93794582    -0.39800
C1041       C  0.34643976  0.92750294  0.77071283    -0.13500
C1042       C  0.34378004  0.90755365  0.77260894     0.16900
C1043       C  0.35945218  0.89616485  0.77890731     0.03200
C1044       C  0.37710382  0.90478680  0.78382955    -0.12000
C1045       C  0.37978890  0.92475561  0.78247164    -0.03000
C1046       C  0.36431509  0.93616069  0.77541135     0.02500
C1047       C  0.32455044  0.89858471  0.76878392     0.09300
N1048       N  0.35740461  0.87583904  0.78129149     0.65700
H1049       H  0.38868213  0.89572308  0.78920921     0.18600
N1050       N  0.36624648  0.95655240  0.77352316     0.76100
H1051       H  0.33452273  0.93640109  0.76580788     0.10100
C1052       C  0.30889281  0.90084893  0.78159112     0.03800
C1053       C  0.29236539  0.88923918  0.77959792    -0.04900
C1054       C  0.29061713  0.87511428  0.76478120    -0.23300
C1055       C  0.30562180  0.87506920  0.75028588     0.13000
C1056       C  0.32238552  0.88635734  0.75290059    -0.12500
N1057       N  0.31008239  0.91390602  0.79753798     0.64700
H1058       H  0.28122791  0.89043955  0.79061915     0.12600
N1059       N  0.30471812  0.86404300  0.73282887     0.61300
H1060       H  0.33407181  0.88540248  0.74241506     0.08700
O1061       O  0.36059168  0.96745774  0.78702052    -0.40100
O1062       O  0.37055884  0.96367376  0.75732436    -0.39300
O1063       O  0.35914105  0.86493235  0.76678735    -0.39300
O1064       O  0.35842427  0.86872608  0.79800237    -0.37000
O1065       O  0.29374071  0.86951904  0.71939861    -0.37900
O1066       O  0.31858705  0.85285340  0.72871771    -0.34100
O1067       O  0.30073955  0.92952248  0.79710162    -0.35500
O1068       O  0.31777269  0.90852285  0.81312626    -0.39800
C1069       C  0.45010931  0.88833437  0.87657136    -0.13500
C1070       C  0.45956649  0.87246397  0.86822465     0.16900
C1071       C  0.46373494  0.87280066  0.84825806     0.03200
C1072       C  0.45839266  0.88882576  0.83712925    -0.12000
C1073       C  0.44875826  0.90463799  0.84550979    -0.03000
C1074       C  0.44474123  0.90426726  0.86556300     0.02500
C1075       C  0.46229760  0.85499385  0.88034344     0.09300
N1076       N  0.47326899  0.85695701  0.83906252     0.65700
H1077       H  0.46154894  0.88873340  0.82179076     0.18600
N1078       N  0.43435104  0.91948404  0.87492909     0.76100
H1079       H  0.44601363  0.88803413  0.89169082     0.10100
C1080       C  0.47024488  0.85644383  0.89906136     0.03800
C1081       C  0.46676256  0.84190761  0.91257847    -0.04900
C1082       C  0.45597607  0.82550556  0.90767324    -0.23300
C1083       C  0.45011631  0.82294856  0.88833638     0.13000
C1084       C  0.45304576  0.83779308  0.87493939    -0.12500
N1085       N  0.48090749  0.87313980  0.90485911     0.64700
H1086       H  0.47169924  0.84390716  0.92729679     0.12600
N1087       N  0.43877323  0.80669744  0.88272971     0.61300
H1088       H  0.44653203  0.83649800  0.86078071     0.08700
O1089       O  0.44352077  0.93189488  0.88462173    -0.40100
O1090       O  0.41615123  0.91828612  0.87671061    -0.39300
O1091       O  0.46435006  0.84709618  0.82658822    -0.39300
O1092       O  0.49133833  0.85480540  0.84106417    -0.37000
O1093       O  0.42070261  0.80866233  0.88070659    -0.37900
O1094       O  0.44708620  0.79208958  0.87567015    -0.34100
O1095       O  0.47491321  0.88330923  0.91878873    -0.35500
O1096       O  0.49773492  0.87590761  0.89816574    -0.39800
C1097       C  0.38114094  0.84151993  0.25300635    -0.13500
C1098       C  0.38775309  0.82409754  0.24480598     0.16900
C1099       C  0.40459473  0.82459853  0.23314564     0.03200
C1100       C  0.41400734  0.84219876  0.22955135    -0.12000
C1101       C  0.40676960  0.85981152  0.23675589    -0.03000
C1102       C  0.39039940  0.85921401  0.24910742     0.02500
C1103       C  0.37549571  0.80626809  0.24651949     0.09300
N1104       N  0.41128955  0.80774123  0.22325951     0.65700
H1105       H  0.42645071  0.84213898  0.21993260     0.18600
N1106       N  0.38255827  0.87642784  0.25732274     0.76100
H1107       H  0.36824168  0.84147535  0.26201369     0.10100
C1108       C  0.38225877  0.78858090  0.25388532     0.03800
C1109       C  0.37005642  0.77219542  0.25388404    -0.04900
C1110       C  0.35081543  0.77261833  0.24654949    -0.23300
C1111       C  0.34389077  0.79123163  0.24101345     0.13000
C1112       C  0.35627879  0.80722878  0.24041282    -0.12500
N1113       N  0.40101959  0.78725382  0.26255025     0.64700
H1114       H  0.37577458  0.75922132  0.26028216     0.12600
N1115       N  0.32402647  0.79492393  0.23691968     0.61300
H1116       H  0.35055000  0.82084062  0.23533777     0.08700
O1117       O  0.38807922  0.88179062  0.27383966    -0.40100
O1118       O  0.36760870  0.88391378  0.25000858    -0.39300
O1119       O  0.40156020  0.80110818  0.20933425    -0.39300
O1120       O  0.42854130  0.80211916  0.22562001    -0.37000
O1121       O  0.31418614  0.80320654  0.24992814    -0.37900
O1122       O  0.31920904  0.79747423  0.21953792    -0.34100
O1123       O  0.40415224  0.79581474  0.27833383    -0.35500
O1124       O  0.41291430  0.77470374  0.25666984    -0.39800
C1125       C  0.32975768  0.86880924  0.99863035    -0.13500
C1126       C  0.34793954  0.86734391  0.00750177     0.16900
C1127       C  0.35163727  0.87758158  0.02459583     0.03200
C1128       C  0.33696007  0.88868974  0.03293189    -0.12000
C1129       C  0.31837959  0.88960230  0.02461954    -0.03000
C1130       C  0.31495946  0.87988387  0.00700519     0.02500
C1131       C  0.36295585  0.85506366  0.99872876     0.09300
N1132       N  0.36990151  0.87599086  0.03418725     0.65700
H1133       H  0.33995461  0.89595957  0.04646612     0.18600
N1134       N  0.29656273  0.88083443  0.99759523     0.76100
H1135       H  0.32699629  0.86112323  0.98527349     0.10100
C1136       C  0.36235231  0.83496997  0.00083441     0.03800
C1137       C  0.37654562  0.82358714  0.99198211    -0.04900
C1138       C  0.39140205  0.83195475  0.98085887    -0.23300
C1139       C  0.39211201  0.85222694  0.97906203     0.13000
C1140       C  0.37790391  0.86357174  0.98802607    -0.12500
N1141       N  0.34738319  0.82597411  0.01193423     0.64700
H1142       H  0.37568664  0.80809420  0.99355576     0.12600
N1143       N  0.40706749  0.86154514  0.96821132     0.61300
H1144       H  0.37844259  0.87909114  0.98652144     0.08700
O1145       O  0.28459109  0.86722914  0.99959532    -0.40100
O1146       O  0.29383943  0.89323251  0.98460324    -0.39300
O1147       O  0.38182169  0.88976109  0.03342648    -0.39300
O1148       O  0.37251223  0.86263141  0.04620913    -0.37000
O1149       O  0.40312894  0.86891487  0.95205862    -0.37900
O1150       O  0.42306503  0.86536859  0.97618018    -0.34100
O1151       O  0.33223952  0.81997843  0.00366307    -0.35500
O1152       O  0.35057675  0.82138089  0.02924872    -0.39800
C1153       C  0.31456877  0.91949451  0.14230210    -0.13500
C1154       C  0.33113068  0.93102327  0.13956350     0.16900
C1155       C  0.33263307  0.94212115  0.12264264     0.03200
C1156       C  0.31872049  0.94025392  0.10811046    -0.12000
C1157       C  0.30301514  0.92750352  0.11002254    -0.03000
C1158       C  0.30048506  0.91767819  0.12770099     0.02500
C1159       C  0.34829745  0.92852438  0.15231992     0.09300
N1160       N  0.34879201  0.95467449  0.11962799     0.65700
H1161       H  0.32073320  0.94824027  0.09482850     0.18600
N1162       N  0.28484323  0.90441718  0.13034495     0.76100
H1163       H  0.31330537  0.91075812  0.15518358     0.10100
C1164       C  0.34814843  0.93356488  0.17203816     0.03800
C1165       C  0.36458492  0.92996500  0.18351100    -0.04900
C1166       C  0.38134313  0.92130830  0.17565431    -0.23300
C1167       C  0.38130659  0.91620900  0.15582586     0.13000
C1168       C  0.36493791  0.91985170  0.14449030    -0.12500
N1169       N  0.33158498  0.94269637  0.18049114     0.64700
H1170       H  0.36422632  0.93402558  0.19862519     0.12600
N1171       N  0.39760466  0.90698232  0.14693049     0.61300
H1172       H  0.36511059  0.91555279  0.12942669     0.08700
O1173       O  0.27064611  0.90900328  0.14096376    -0.40100
O1174       O  0.28667178  0.88721369  0.12471995    -0.39300
O1175       O  0.36124815  0.95067377  0.10682604    -0.39300
O1176       O  0.34873550  0.97119565  0.12724511    -0.37000
O1177       O  0.40972560  0.91690669  0.13755918    -0.37900
O1178       O  0.39780481  0.88888708  0.14527790    -0.34100
O1179       O  0.32167813  0.93393659  0.19305521    -0.35500
O1180       O  0.32861399  0.96037182  0.17757106    -0.39800
C1181       C  0.30545967  0.73171776  0.20602132    -0.13500
C1182       C  0.30984143  0.74320213  0.18991766     0.16900
C1183       C  0.32575196  0.75598615  0.19152110     0.03200
C1184       C  0.33403345  0.75966077  0.20963738    -0.12000
C1185       C  0.32830623  0.74953189  0.22637114    -0.03000
C1186       C  0.31552177  0.73360622  0.22344972     0.02500
C1187       C  0.29613765  0.74363991  0.17299586     0.09300
N1188       N  0.33450144  0.76447374  0.17479158     0.65700
H1189       H  0.34598539  0.76970709  0.21010274     0.18600
N1190       N  0.31285971  0.71879623  0.23760693     0.76100
H1191       H  0.29372282  0.72143666  0.20561826     0.10100
C1192       C  0.28474782  0.72760599  0.16755061     0.03800
C1193       C  0.26790962  0.73039824  0.15661103    -0.04900
C1194       C  0.26264014  0.74862782  0.14902810    -0.23300
C1195       C  0.27719658  0.76331115  0.15040384     0.13000
C1196       C  0.29231098  0.76122236  0.16377789    -0.12500
N1197       N  0.28994232  0.70839085  0.17293446     0.64700
H1198       H  0.25848952  0.71809358  0.15458407     0.12600
N1199       N  0.27811835  0.77972885  0.13787383     0.61300
H1200       H  0.30105400  0.77373522  0.16687715     0.08700
O1201       O  0.29856530  0.71939140  0.24902541    -0.40100
O1202       O  0.32128089  0.70286736  0.23496189    -0.39300
O1203       O  0.33842613  0.78222618  0.17462347    -0.39300
O1204       O  0.34112663  0.75375766  0.16157667    -0.37000
O1205       O  0.28062692  0.77713425  0.12000589    -0.37900
O1206       O  0.28192611  0.79611448  0.14484743    -0.34100
O1207       O  0.27747088  0.69743411  0.18055324    -0.35500
O1208       O  0.30594956  0.70146338  0.16735651    -0.39800
C1209       C  0.23750747  0.80534994  0.12651481    -0.13500
C1210       C  0.23765618  0.80508117  0.10629675     0.16900
C1211       C  0.23662829  0.78711762  0.09688553     0.03200
C1212       C  0.23729152  0.76999007  0.10756576    -0.12000
C1213       C  0.23968358  0.76991789  0.12786544    -0.03000
C1214       C  0.23783752  0.78825360  0.13733924     0.02500
C1215       C  0.24109759  0.82335223  0.09535070     0.09300
N1216       N  0.23442751  0.78601218  0.07639216     0.65700
H1217       H  0.23565972  0.75677613  0.09954552     0.18600
N1218       N  0.23542192  0.78998287  0.15784420     0.76100
H1219       H  0.23773343  0.81899521  0.13411227     0.10100
C1220       C  0.23014037  0.84029072  0.09855567     0.03800
C1221       C  0.23572969  0.85774457  0.08981924    -0.04900
C1222       C  0.25210761  0.85875235  0.07768703    -0.23300
C1223       C  0.26251801  0.84152527  0.07384443     0.13000
C1224       C  0.25704698  0.82425575  0.08274167    -0.12500
N1225       N  0.21317807  0.83996965  0.11047894     0.64700
H1226       H  0.22739008  0.87063500  0.09284480     0.12600
N1227       N  0.27906132  0.84128730  0.06131181     0.61300
H1228       H  0.26584764  0.81154627  0.08028058     0.08700
O1229       O  0.21953155  0.79630390  0.16441940    -0.40100
O1230       O  0.25003698  0.78987585  0.16873785    -0.39300
O1231       O  0.24762240  0.77845414  0.06620581    -0.39300
O1232       O  0.21805530  0.78933616  0.06899226    -0.37000
O1233       O  0.29587436  0.84260931  0.06838446    -0.37900
O1234       O  0.27709349  0.83607060  0.04395827    -0.34100
O1235       O  0.21319879  0.84874011  0.12646232    -0.35500
O1236       O  0.19730114  0.83424210  0.10346978    -0.39800
C1237       C  0.35751155  0.62002436  0.49197908    -0.13500
C1238       C  0.35463633  0.63918365  0.49777962     0.16900
C1239       C  0.33731706  0.64864384  0.49263337     0.03200
C1240       C  0.32303241  0.63876987  0.48234555    -0.12000
C1241       C  0.32566422  0.61950435  0.47679999    -0.03000
C1242       C  0.34323207  0.61014030  0.48151640     0.02500
C1243       C  0.36965685  0.64922592  0.50927203     0.09300
N1244       N  0.33381308  0.66817937  0.49815861     0.65700
H1245       H  0.30977384  0.64630118  0.47866852     0.18600
N1246       N  0.34664405  0.59053383  0.47621044     0.76100
H1247       H  0.37089376  0.61270199  0.49561803     0.10100
C1248       C  0.37529183  0.64244750  0.52758143     0.03800
C1249       C  0.38793424  0.65341061  0.53893106    -0.04900
C1250       C  0.39515226  0.67111770  0.53231721    -0.23300
C1251       C  0.39069048  0.67712923  0.51340471     0.13000
C1252       C  0.37794094  0.66622451  0.50211385    -0.12500
N1253       N  0.36745492  0.62502749  0.53528962     0.64700
H1254       H  0.39130611  0.64848480  0.55337144     0.12600
N1255       N  0.39921004  0.69407978  0.50536435     0.61300
H1256       H  0.37434950  0.67113321  0.48772411     0.08700
O1257       O  0.34130880  0.57721972  0.48739036    -0.40100
O1258       O  0.35772641  0.58670091  0.46216909    -0.39300
O1259       O  0.33562905  0.68137204  0.48579434    -0.39300
O1260       O  0.32536420  0.67174193  0.51396216    -0.37000
O1261       O  0.41618635  0.69334311  0.49848492    -0.37900
O1262       O  0.38884119  0.70873489  0.50236293    -0.34100
O1263       O  0.37787514  0.61009866  0.53581724    -0.35500
O1264       O  0.35167979  0.62546838  0.54459809    -0.39800
C1265       C  0.39520732  0.68145196  0.27493136    -0.13500
C1266       C  0.38031137  0.68085264  0.26125458     0.16900
C1267       C  0.37636594  0.66323488  0.25181086     0.03200
C1268       C  0.38690326  0.64649018  0.25662514    -0.12000
C1269       C  0.40146796  0.64694611  0.27082470    -0.03000
C1270       C  0.40585698  0.66489661  0.27962701     0.02500
C1271       C  0.36915325  0.69886001  0.25729103     0.09300
N1272       N  0.36131116  0.66200741  0.23773257     0.65700
H1273       H  0.38321659  0.63297934  0.24969607     0.18600
N1274       N  0.42138452  0.66670688  0.29316079     0.76100
H1275       H  0.39865034  0.69495843  0.28201471     0.10100
C1276       C  0.35408684  0.70488495  0.26956473     0.03800
C1277       C  0.34448793  0.72242064  0.26631861    -0.04900
C1278       C  0.34963945  0.73504044  0.25096100    -0.23300
C1279       C  0.36503872  0.72845199  0.23852482     0.13000
C1280       C  0.37446039  0.71075866  0.24192222    -0.12500
N1281       N  0.34789747  0.69295479  0.28518740     0.64700
H1282       H  0.33206784  0.72513269  0.27541457     0.12600
N1283       N  0.37103719  0.73900091  0.22181581     0.61300
H1284       H  0.38612660  0.70626955  0.23237727     0.08700
O1285       O  0.41765659  0.66993612  0.31072733    -0.40100
O1286       O  0.43859618  0.66838182  0.28708478    -0.39300
O1287       O  0.36566967  0.66121686  0.22003727    -0.39300
O1288       O  0.34416954  0.65830205  0.24302520    -0.37000
O1289       O  0.38579267  0.74970148  0.22298335    -0.37900
O1290       O  0.36634668  0.73257995  0.20541298    -0.34100
O1291       O  0.35318987  0.69685305  0.30217826    -0.35500
O1292       O  0.33498912  0.68036786  0.28240865    -0.39800
C1293       C  0.34762030  0.56874840  0.33311268    -0.13500
C1294       C  0.35089977  0.56950796  0.35315113     0.16900
C1295       C  0.37000360  0.57288019  0.35975477     0.03200
C1296       C  0.38497449  0.57623725  0.34654875    -0.12000
C1297       C  0.38154671  0.57665531  0.32658380    -0.03000
C1298       C  0.36268457  0.57237239  0.31984175     0.02500
C1299       C  0.33441192  0.56764931  0.36711540     0.09300
N1300       N  0.37435640  0.57406060  0.37989936     0.65700
H1301       H  0.39931473  0.57934556  0.35215176     0.18600
N1302       N  0.35848615  0.57184675  0.29966370     0.76100
H1303       H  0.33323395  0.56555660  0.32770914     0.10100
C1304       C  0.31759419  0.57923024  0.36564684     0.03800
C1305       C  0.30415881  0.57979394  0.38088949    -0.04900
C1306       C  0.30749075  0.56957882  0.39800017    -0.23300
C1307       C  0.32329914  0.55671544  0.39878914     0.13000
C1308       C  0.33627888  0.55549412  0.38320666    -0.12500
N1309       N  0.31491759  0.59203524  0.34976581     0.64700
H1310       H  0.29213439  0.58982729  0.38008388     0.12600
N1311       N  0.32685269  0.54542753  0.41562945     0.61300
H1312       H  0.34852468  0.54577123  0.38419652     0.08700
O1313       O  0.35016960  0.58599818  0.29185591    -0.40100
O1314       O  0.35986362  0.55614037  0.29056308    -0.39300
O1315       O  0.38458307  0.56113193  0.38760699    -0.39300
O1316       O  0.37131265  0.58959122  0.38890434    -0.37000
O1317       O  0.31994832  0.52863969  0.41670014    -0.37900
O1318       O  0.33976916  0.55064077  0.42742313    -0.34100
O1319       O  0.30162472  0.58874581  0.33770184    -0.35500
O1320       O  0.32315920  0.60825825  0.34989690    -0.39800
C1321       C  0.28839439  0.76056682  0.27593931    -0.13500
C1322       C  0.29550875  0.75979840  0.29479224     0.16900
C1323       C  0.31569483  0.75989875  0.29754272     0.03200
C1324       C  0.32826195  0.75999597  0.28156566    -0.12000
C1325       C  0.32146249  0.75813629  0.26233381    -0.03000
C1326       C  0.30071860  0.76020344  0.25971835     0.02500
C1327       C  0.28151357  0.75809209  0.31121939     0.09300
N1328       N  0.32372943  0.75917365  0.31651862     0.65700
H1329       H  0.34372998  0.75970530  0.28435034     0.18600
N1330       N  0.29124520  0.76252476  0.24137774     0.76100
H1331       H  0.27283744  0.76107538  0.27368000     0.10100
C1332       C  0.26631251  0.77130910  0.31377861     0.03800
C1333       C  0.25224197  0.76816131  0.32800736    -0.04900
C1334       C  0.25292179  0.75243666  0.34105718    -0.23300
C1335       C  0.26781634  0.73838598  0.33735980     0.13000
C1336       C  0.28191544  0.74171947  0.32294547    -0.12500
N1337       N  0.26508201  0.78828736  0.30221667     0.64700
H1338       H  0.24078864  0.77867764  0.32925283     0.12600
N1339       N  0.26849305  0.71998638  0.34658561     0.61300
H1340       H  0.29277093  0.73075488  0.32016578     0.08700
O1341       O  0.27928729  0.74976820  0.23619400    -0.40100
O1342       O  0.28796599  0.77938104  0.23558588    -0.39300
O1343       O  0.32997582  0.74338538  0.32298697    -0.39300
O1344       O  0.32785469  0.77462531  0.32519384    -0.37000
O1345       O  0.25730318  0.70681662  0.34079838    -0.37900
O1346       O  0.28378056  0.71522941  0.35536599    -0.34100
O1347       O  0.25083854  0.79056667  0.29103456    -0.35500
O1348       O  0.27616762  0.80232025  0.30572966    -0.39800
C1349       C  0.25658709  0.71413589  0.39388196    -0.13500
C1350       C  0.24397493  0.69834140  0.39179358     0.16900
C1351       C  0.22704634  0.70101372  0.38079499     0.03200
C1352       C  0.22398711  0.71835123  0.37081513    -0.12000
C1353       C  0.23799180  0.73338557  0.37043937    -0.03000
C1354       C  0.25363090  0.73154352  0.38379770     0.02500
C1355       C  0.24885356  0.67925454  0.40091069     0.09300
N1356       N  0.21309336  0.68591599  0.37885288     0.65700
H1357       H  0.21042890  0.71957997  0.36317969     0.18600
N1358       N  0.26646225  0.74727677  0.38771912     0.76100
H1359       H  0.26905380  0.71288720  0.40329343     0.10100
C1360       C  0.26654986  0.66989910  0.39665735     0.03800
C1361       C  0.27127593  0.65241114  0.40558671    -0.04900
C1362       C  0.25865043  0.64338701  0.41879362    -0.23300
C1363       C  0.24065021  0.65243506  0.42274689     0.13000
C1364       C  0.23599985  0.67022755  0.41396158    -0.12500
N1365       N  0.27970718  0.67764884  0.38271505     0.64700
H1366       H  0.28506626  0.64578294  0.40197382     0.12600
N1367       N  0.22710998  0.64404718  0.43592014     0.61300
H1368       H  0.22235907  0.67713258  0.41756661     0.08700
O1369       O  0.26539602  0.75578021  0.40381660    -0.40100
O1370       O  0.28086222  0.75041654  0.37687772    -0.39300
O1371       O  0.19715970  0.68705035  0.38783457    -0.39300
O1372       O  0.21499545  0.67372297  0.36543869    -0.37000
O1373       O  0.22574351  0.65060923  0.45287937    -0.37900
O1374       O  0.21421053  0.63277456  0.42963970    -0.34100
O1375       O  0.29548263  0.68503040  0.38825631    -0.35500
O1376       O  0.27754913  0.67342092  0.36512035    -0.39800
C1377       C  0.15011614  0.83252748  0.51631674    -0.13500
C1378       C  0.14751254  0.85242751  0.51871401     0.16900
C1379       C  0.13529473  0.85918839  0.53360343     0.03200
C1380       C  0.12625601  0.84610674  0.54599548    -0.12000
C1381       C  0.12903058  0.82617984  0.54383789    -0.03000
C1382       C  0.14102278  0.81938949  0.52869067     0.02500
C1383       C  0.15694602  0.86586269  0.50503161     0.09300
N1384       N  0.13221342  0.87932932  0.53656358     0.65700
H1385       H  0.11707742  0.85165925  0.55746958     0.18600
N1386       N  0.14423486  0.79928053  0.52569167     0.76100
H1387       H  0.15905869  0.82713307  0.50459035     0.10100
C1388       C  0.17721154  0.86579854  0.50219339     0.03800
C1389       C  0.18553705  0.87799928  0.48848447    -0.04900
C1390       C  0.17402021  0.89031248  0.47727241    -0.23300
C1391       C  0.15372850  0.89055446  0.48028911     0.13000
C1392       C  0.14540393  0.87832510  0.49404073    -0.12500
N1393       N  0.18955063  0.85339401  0.51309069     0.64700
H1394       H  0.20112607  0.87748905  0.48635700     0.12600
N1395       N  0.14133444  0.90293939  0.46943888     0.61300
H1396       H  0.12977115  0.87826564  0.49584053     0.08700
O1397       O  0.15988972  0.79173541  0.53129927    -0.40100
O1398       O  0.13327326  0.79002716  0.51443039    -0.39300
O1399       O  0.11607954  0.88670446  0.53218025    -0.39300
O1400       O  0.14401237  0.88880408  0.54674430    -0.37000
O1401       O  0.13238328  0.89637642  0.45497669    -0.37900
O1402       O  0.13669477  0.91917548  0.47624360    -0.34100
O1403       O  0.19715659  0.83893295  0.50499118    -0.35500
O1404       O  0.19596356  0.85902362  0.52918897    -0.39800
C1405       C  0.24123186  0.83729384  0.40560959    -0.13500
C1406       C  0.22669381  0.82629682  0.39643762     0.16900
C1407       C  0.20817406  0.83471833  0.39416706     0.03200
C1408       C  0.20451064  0.85337338  0.40105494    -0.12000
C1409       C  0.21898962  0.86442515  0.41010546    -0.03000
C1410       C  0.23761776  0.85620596  0.41221299     0.02500
C1411       C  0.23102978  0.80643015  0.38877885     0.09300
N1412       N  0.19307105  0.82492765  0.38403391     0.65700
H1413       H  0.19012938  0.85934450  0.39900089     0.18600
N1414       N  0.25291905  0.86664838  0.42135128     0.76100
H1415       H  0.25547986  0.83112295  0.40784473     0.10100
C1416       C  0.24695504  0.80292023  0.37646002     0.03800
C1417       C  0.24947649  0.78475754  0.36791281    -0.04900
C1418       C  0.23555897  0.76979822  0.36989199    -0.23300
C1419       C  0.22146528  0.77247982  0.38481457     0.13000
C1420       C  0.21917904  0.79067218  0.39374485    -0.12500
N1421       N  0.26020082  0.81796608  0.37148508     0.64700
H1422       H  0.26237221  0.78292782  0.35923283     0.12600
N1423       N  0.20941777  0.75695967  0.39122194     0.61300
H1424       H  0.20777663  0.79256743  0.40439080     0.08700
O1425       O  0.26623959  0.87398914  0.41121385    -0.40100
O1426       O  0.25480205  0.86587216  0.43944908    -0.39300
O1427       O  0.17895428  0.81805254  0.39341194    -0.39300
O1428       O  0.19134678  0.82757865  0.36610576    -0.37000
O1429       O  0.19394247  0.75293410  0.38239903    -0.37900
O1430       O  0.21261547  0.74938773  0.40744388    -0.34100
O1431       O  0.27739340  0.81743975  0.37770592    -0.35500
O1432       O  0.25587445  0.82958164  0.35820348    -0.39800
C1433       C  0.13058659  0.94665524  0.32205780    -0.13500
C1434       C  0.14325883  0.93196422  0.32789771     0.16900
C1435       C  0.14142268  0.91352824  0.31946961     0.03200
C1436       C  0.12616851  0.90981086  0.30664551    -0.12000
C1437       C  0.11227873  0.92398723  0.30235017    -0.03000
C1438       C  0.11513717  0.94283767  0.30946451     0.02500
C1439       C  0.15508488  0.93493612  0.34555802     0.09300
N1440       N  0.15337319  0.89782792  0.32550541     0.65700
H1441       H  0.12429816  0.89526053  0.30126797     0.18600
N1442       N  0.10133667  0.95772648  0.30585998     0.76100
H1443       H  0.13177122  0.96083093  0.32853305     0.10100
C1444       C  0.17541294  0.93245926  0.34600437     0.03800
C1445       C  0.18509942  0.93217410  0.36383238    -0.04900
C1446       C  0.17487276  0.93456403  0.38129284    -0.23300
C1447       C  0.15474988  0.93848228  0.38058910     0.13000
C1448       C  0.14512032  0.93851355  0.36287506    -0.12500
N1449       N  0.18639412  0.93040750  0.32856177     0.64700
H1450       H  0.20059438  0.92948374  0.36401959     0.12600
N1451       N  0.14369145  0.94195650  0.39774746     0.61300
H1452       H  0.12951597  0.94058249  0.36273391     0.08700
O1453       O  0.10467746  0.96991630  0.29279687    -0.40100
O1454       O  0.08786681  0.96077730  0.31788421    -0.39300
O1455       O  0.15020290  0.88999290  0.34163116    -0.39300
O1456       O  0.16397460  0.88931103  0.31327969    -0.37000
O1457       O  0.14057946  0.95905825  0.40310879    -0.37900
O1458       O  0.13390776  0.92845794  0.40509491    -0.34100
O1459       O  0.18905303  0.94493295  0.31797817    -0.35500
O1460       O  0.19673960  0.91562167  0.32597983    -0.39800
C1461       C  0.17176104  0.76783264  0.20366838    -0.13500
C1462       C  0.17409107  0.75177553  0.19174118     0.16900
C1463       C  0.16221882  0.73562898  0.19465949     0.03200
C1464       C  0.14968619  0.73501518  0.21063082    -0.12000
C1465       C  0.14960929  0.74978499  0.22480912    -0.03000
C1466       C  0.15952429  0.76724101  0.21984846     0.02500
C1467       C  0.19090343  0.75118326  0.17843636     0.09300
N1468       N  0.16354075  0.71925530  0.18217778     0.65700
H1469       H  0.14059824  0.72246016  0.21194925     0.18600
N1470       N  0.15761283  0.78452487  0.23101525     0.76100
H1471       H  0.18033377  0.78064769  0.20099915     0.10100
C1472       C  0.18933641  0.75478003  0.15865505     0.03800
C1473       C  0.20599752  0.75443012  0.14700991    -0.04900
C1474       C  0.22487825  0.75065746  0.15450395    -0.23300
C1475       C  0.22601288  0.74740786  0.17497964     0.13000
C1476       C  0.20911938  0.74758306  0.18629505    -0.12500
N1477       N  0.17098912  0.75923031  0.15022570     0.64700
H1478       H  0.20411162  0.75689147  0.13169101     0.12600
N1479       N  0.24360274  0.74366642  0.18514957     0.61300
H1480       H  0.21029700  0.74501793  0.20169141     0.08700
O1481       O  0.16827461  0.78730916  0.24552788    -0.40100
O1482       O  0.14864907  0.79861592  0.22384762    -0.39300
O1483       O  0.17658440  0.70683122  0.18499535    -0.39300
O1484       O  0.14971586  0.71542620  0.17089103    -0.37000
O1485       O  0.25332276  0.75768201  0.19153337    -0.37900
O1486       O  0.24566936  0.72744019  0.19306335    -0.34100
O1487       O  0.16605039  0.77660153  0.14824921    -0.35500
O1488       O  0.16162342  0.74624705  0.14152980    -0.39800
C1489       C  0.18458690  0.74733866  0.27856592    -0.13500
C1490       C  0.17575550  0.74532534  0.29658036     0.16900
C1491       C  0.15551296  0.74369128  0.29760819     0.03200
C1492       C  0.14448892  0.74408205  0.28064057    -0.12000
C1493       C  0.15295913  0.74680800  0.26207983    -0.03000
C1494       C  0.17390356  0.74750934  0.26139456     0.02500
C1495       C  0.18829995  0.74533136  0.31395695     0.09300
N1496       N  0.14592016  0.74147042  0.31578509     0.65700
H1497       H  0.12886831  0.74276072  0.28202076     0.18600
N1498       N  0.18521845  0.74706511  0.24397397     0.76100
H1499       H  0.20028119  0.74835869  0.27776642     0.10100
C1500       C  0.20280355  0.73141529  0.31623623     0.03800
C1501       C  0.21689770  0.73372747  0.33045494    -0.04900
C1502       C  0.21743337  0.74975536  0.34319117    -0.23300
C1503       C  0.20248807  0.76398961  0.34044057     0.13000
C1504       C  0.18803238  0.76117959  0.32637805    -0.12500
N1505       N  0.20388281  0.71509640  0.30365260     0.64700
H1506       H  0.22799856  0.72286607  0.33119927     0.12600
N1507       N  0.20221623  0.78224363  0.35000665     0.61300
H1508       H  0.17733337  0.77238655  0.32408596     0.08700
O1509       O  0.19757823  0.76019736  0.24115850    -0.40100
O1510       O  0.18771943  0.73120449  0.23543910    -0.39300
O1511       O  0.13722686  0.75562893  0.32330973    -0.39300
O1512       O  0.14336572  0.72483645  0.32260332    -0.37000
O1513       O  0.21270886  0.79564337  0.34349759    -0.37900
O1514       O  0.18745446  0.78665558  0.35992577    -0.34100
O1515       O  0.21673732  0.71450904  0.29063209    -0.35500
O1516       O  0.19465814  0.69998638  0.30787655    -0.39800
C1517       C  0.10067946  0.78763766  0.23057187    -0.13500
C1518       C  0.10188342  0.80037567  0.24619907     0.16900
C1519       C  0.11405056  0.79565144  0.26167383     0.03200
C1520       C  0.12531877  0.77887721  0.26107772    -0.12000
C1521       C  0.12441447  0.76548609  0.24554161    -0.03000
C1522       C  0.11160664  0.77044539  0.22995691     0.02500
C1523       C  0.09157027  0.81927220  0.24584346     0.09300
N1524       N  0.11523561  0.80794358  0.27823586     0.65700
H1525       H  0.13534764  0.77725527  0.27281806     0.18600
N1526       N  0.11102127  0.75946120  0.21239333     0.76100
H1527       H  0.09160708  0.79136936  0.21838820     0.10100
C1528       C  0.10177395  0.83651420  0.24229662     0.03800
C1529       C  0.09267449  0.85437757  0.24518087    -0.04900
C1530       C  0.07334980  0.85559580  0.25164048    -0.23300
C1531       C  0.06272295  0.83825116  0.25391000     0.13000
C1532       C  0.07190313  0.82033980  0.25105709    -0.12500
N1533       N  0.12162726  0.83610832  0.23627231     0.64700
H1534       H  0.10116585  0.86736952  0.24327036     0.12600
N1535       N  0.04280920  0.83850217  0.25976552     0.61300
H1536       H  0.06384659  0.80720486  0.25370823     0.08700
O1537       O  0.11621155  0.76730534  0.19678545    -0.40100
O1538       O  0.10164074  0.74388953  0.21167455    -0.39300
O1539       O  0.10195005  0.80740380  0.29081660    -0.39300
O1540       O  0.13092210  0.81653429  0.28199869    -0.37000
O1541       O  0.02967962  0.83852340  0.24710199    -0.37900
O1542       O  0.03840538  0.83511649  0.27713065    -0.34100
O1543       O  0.12560427  0.83311035  0.21872376    -0.35500
O1544       O  0.13460600  0.84258871  0.24734679    -0.39800
C1545       C  0.09678290  0.65978174  0.25958767    -0.13500
C1546       C  0.09451999  0.67409296  0.24544710     0.16900
C1547       C  0.08417556  0.66965510  0.22850547     0.03200
C1548       C  0.07641081  0.65121210  0.22595505    -0.12000
C1549       C  0.07938997  0.63652794  0.23960175    -0.03000
C1550       C  0.08944906  0.64106920  0.25676218     0.02500
C1551       C  0.10511685  0.69266331  0.24729974     0.09300
N1552       N  0.08313367  0.68305210  0.21288754     0.65700
H1553       H  0.06896182  0.64809311  0.21254420     0.18600
N1554       N  0.09349304  0.62663336  0.27082671     0.76100
H1555       H  0.10504918  0.66293259  0.27250497     0.10100
C1556       C  0.09562229  0.71048909  0.24894382     0.03800
C1557       C  0.10640224  0.72768404  0.24862973    -0.04900
C1558       C  0.12685550  0.72788220  0.24582642    -0.23300
C1559       C  0.13620790  0.70939435  0.24602313     0.13000
C1560       C  0.12529342  0.69238554  0.24634028    -0.12500
N1561       N  0.07503920  0.71137114  0.25147028     0.64700
H1562       H  0.09832193  0.74086028  0.25059116     0.12600
N1563       N  0.15681699  0.70716206  0.24610990     0.61300
H1564       H  0.13277686  0.67866345  0.24562796     0.08700
O1565       O  0.08393881  0.62630770  0.28639951    -0.40100
O1566       O  0.10865836  0.61655170  0.26921646    -0.39300
O1567       O  0.09813610  0.68634828  0.20291082    -0.39300
O1568       O  0.06677819  0.68825660  0.20661856    -0.37000
O1569       O  0.16514829  0.70570383  0.26224778    -0.37900
O1570       O  0.16475776  0.69932441  0.23162850    -0.34100
O1571       O  0.06780825  0.70829647  0.26794067    -0.35500
O1572       O  0.06461963  0.71866675  0.23844926    -0.39800
C1573       C  0.14955689  0.67008445  0.00311008    -0.13500
C1574       C  0.13893373  0.65382210  0.00871108     0.16900
C1575       C  0.11925136  0.65222472  0.00369893     0.03200
C1576       C  0.11077316  0.66631445  0.99211769    -0.12000
C1577       C  0.12161609  0.68220530  0.98578732    -0.03000
C1578       C  0.14105034  0.68433398  0.99178696     0.02500
C1579       C  0.14895659  0.63860663  0.01947771     0.09300
N1580       N  0.10797223  0.63601754  0.00961046     0.65700
H1581       H  0.09577981  0.66461667  0.98771794     0.18600
N1582       N  0.15269148  0.70017544  0.98549751     0.76100
H1583       H  0.16467187  0.67148188  0.00720979     0.10100
C1584       C  0.16415907  0.62817947  0.01079192     0.03800
C1585       C  0.17561787  0.61605227  0.02198831    -0.04900
C1586       C  0.17226101  0.61417676  0.04189820    -0.23300
C1587       C  0.15640911  0.62405143  0.05042902     0.13000
C1588       C  0.14484418  0.63608878  0.03910089    -0.12500
N1589       N  0.16839570  0.63018313  0.99067468     0.64700
H1590       H  0.18754236  0.60848396  0.01509771     0.12600
N1591       N  0.15247670  0.62292349  0.07067290     0.61300
H1592       H  0.13325191  0.64427421  0.04584993     0.08700
O1593       O  0.16297872  0.69854020  0.97046776    -0.40100
O1594       O  0.15501333  0.71451614  0.99647419    -0.39300
O1595       O  0.09614756  0.63774087  0.02346537    -0.39300
O1596       O  0.10733403  0.62122661  0.99901587    -0.37000
O1597       O  0.16109407  0.63419933  0.08211319    -0.37900
O1598       O  0.13787701  0.61362219  0.07653692    -0.34100
O1599       O  0.18347121  0.63906569  0.98537010    -0.35500
O1600       O  0.15869680  0.62076722  0.97844388    -0.39800
C1601       C  0.24558490  0.66027622  0.11279067    -0.13500
C1602       C  0.24135945  0.67516550  0.09984215     0.16900
C1603       C  0.23766469  0.67065200  0.08041602     0.03200
C1604       C  0.23725514  0.65134584  0.07444620    -0.12000
C1605       C  0.24009153  0.63622060  0.08768027    -0.03000
C1606       C  0.24503969  0.64093692  0.10693108     0.02500
C1607       C  0.23987157  0.69516157  0.10725905     0.09300
N1608       N  0.23251270  0.68539219  0.06703401     0.65700
H1609       H  0.23323273  0.64820107  0.05965548     0.18600
N1610       N  0.24849346  0.62634444  0.12100239     0.76100
H1611       H  0.24875309  0.66369447  0.12773720     0.10100
C1612       C  0.22519500  0.70015214  0.12035263     0.03800
C1613       C  0.22550406  0.71803600  0.12957012    -0.04900
C1614       C  0.24016754  0.73204202  0.12595686    -0.23300
C1615       C  0.25462293  0.72682694  0.11187278     0.13000
C1616       C  0.25414737  0.70870396  0.10275812    -0.12500
N1617       N  0.20997584  0.68687068  0.12484417     0.64700
H1618       H  0.21437623  0.71998091  0.14034282     0.12600
N1619       N  0.27086415  0.73892778  0.10757688     0.61300
H1620       H  0.26565598  0.70481955  0.09276534     0.08700
O1621       O  0.23745587  0.62508939  0.13552280    -0.40100
O1622       O  0.26446516  0.61744587  0.12091835    -0.39300
O1623       O  0.24420170  0.69004247  0.05378148    -0.39300
O1624       O  0.21536108  0.69177933  0.06680056    -0.37000
O1625       O  0.28685899  0.73537316  0.11566677    -0.37900
O1626       O  0.27114210  0.74769139  0.09164096    -0.34100
O1627       O  0.20911568  0.67934451  0.14138750    -0.35500
O1628       O  0.19592841  0.68489911  0.11335665    -0.39800
C1629       C  0.18341454  0.56872243  0.16027545    -0.13500
C1630       C  0.16322227  0.56658337  0.15907910     0.16900
C1631       C  0.15426816  0.56652088  0.14081049     0.03200
C1632       C  0.16561204  0.56777380  0.12412769    -0.12000
C1633       C  0.18584570  0.57017163  0.12511406    -0.03000
C1634       C  0.19477499  0.57066859  0.14348266     0.02500
C1635       C  0.15115824  0.56550737  0.17676340     0.09300
N1636       N  0.13355563  0.56692022  0.13903165     0.65700
H1637       H  0.15830972  0.56793255  0.11029046     0.18600
N1638       N  0.21506809  0.57432978  0.14545222     0.76100
H1639       H  0.19032023  0.56927817  0.17430368     0.10100
C1640       C  0.13957454  0.54918590  0.18037867     0.03800
C1641       C  0.12357610  0.55067333  0.19277690    -0.04900
C1642       C  0.11950499  0.56799697  0.20235287    -0.23300
C1643       C  0.13258887  0.58355730  0.20068248     0.13000
C1644       C  0.14822939  0.58225541  0.18773695    -0.12500
N1645       N  0.14352603  0.53126751  0.17095879     0.64700
H1646       H  0.11384100  0.53850949  0.19432459     0.12600
N1647       N  0.12880941  0.60152577  0.21009632     0.61300
H1648       H  0.15707458  0.59487834  0.18504697     0.08700
O1649       O  0.22685238  0.56042949  0.14521855    -0.40100
O1650       O  0.22064087  0.59055416  0.15150273    -0.39300
O1651       O  0.12433633  0.58175432  0.14428666    -0.39300
O1652       O  0.12505751  0.55433401  0.12896234    -0.37000
O1653       O  0.13862401  0.60632079  0.22469082    -0.37900
O1654       O  0.11780917  0.61371102  0.20223145    -0.34100
O1655       O  0.15734469  0.52094983  0.17688397    -0.35500
O1656       O  0.13125184  0.52416868  0.15948070    -0.39800
C1657       C  0.22856210  0.47337796  0.99997388    -0.13500
C1658       C  0.23136916  0.49286436  0.99526750     0.16900
C1659       C  0.23431184  0.49771278  0.97567466     0.03200
C1660       C  0.23330240  0.48340842  0.96129788    -0.12000
C1661       C  0.22891341  0.46416784  0.96587793    -0.03000
C1662       C  0.22714155  0.45913899  0.98558349     0.02500
C1663       C  0.23023294  0.50790562  0.01083648     0.09300
N1664       N  0.23666610  0.51731916  0.96993174     0.65700
H1665       H  0.23452717  0.48772181  0.94631807     0.18600
N1666       N  0.22333169  0.43974154  0.99126206     0.76100
H1667       H  0.22691016  0.46922659  0.01495834     0.10100
C1668       C  0.21411174  0.50877204  0.02346140     0.03800
C1669       C  0.21314281  0.52295900  0.03785660    -0.04900
C1670       C  0.22773305  0.53698140  0.03993283    -0.23300
C1671       C  0.24405669  0.53599497  0.02750747     0.13000
C1672       C  0.24521174  0.52149893  0.01323371    -0.12500
N1673       N  0.19791786  0.49611606  0.02105439     0.64700
H1674       H  0.20031057  0.52346746  0.04694301     0.12600
N1675       N  0.25931736  0.54985811  0.02877873     0.61300
H1676       H  0.25785618  0.52093706  0.00390312     0.08700
O1677       O  0.20660885  0.43514061  0.99715406    -0.40100
O1678       O  0.23731935  0.42828388  0.99369425    -0.39300
O1679       O  0.25250397  0.52273554  0.96251865    -0.39300
O1680       O  0.22204042  0.52823178  0.96920977    -0.37000
O1681       O  0.27317806  0.54711148  0.04031390    -0.37900
O1682       O  0.26063370  0.56294218  0.01624084    -0.34100
O1683       O  0.19383349  0.48408230  0.03406422    -0.35500
O1684       O  0.18599188  0.49907499  0.00759084    -0.39800
C1685       C  0.11214708  0.52181811  0.88096322    -0.13500
C1686       C  0.12132017  0.50478490  0.87506118     0.16900
C1687       C  0.12005263  0.49884485  0.85566628     0.03200
C1688       C  0.11056258  0.51042046  0.84227083    -0.12000
C1689       C  0.10231792  0.52807624  0.84779190    -0.03000
C1690       C  0.10248078  0.53341970  0.86753802     0.02500
C1691       C  0.13328895  0.49374293  0.88872733     0.09300
N1692       N  0.12960478  0.48176211  0.84909237     0.65700
H1693       H  0.11051352  0.50594763  0.82726460     0.18600
N1694       N  0.09339414  0.55073672  0.87413027     0.76100
H1695       H  0.11283488  0.52629043  0.89595235     0.10100
C1696       C  0.15127752  0.50096936  0.89500154     0.03800
C1697       C  0.16439236  0.48872754  0.90418798    -0.04900
C1698       C  0.15974129  0.46932590  0.90749343    -0.23300
C1699       C  0.14086168  0.46270172  0.90300222     0.13000
C1700       C  0.12792671  0.47487786  0.89341497    -0.12500
N1701       N  0.15699130  0.52028903  0.89082240     0.64700
H1702       H  0.17863289  0.49423100  0.90787878     0.12600
N1703       N  0.13485117  0.44349214  0.90730946     0.61300
H1704       H  0.11392283  0.46936656  0.88891908     0.08700
O1705       O  0.07576804  0.55041967  0.87915747    -0.40100
O1706       O  0.10365800  0.56524376  0.87814535    -0.39300
O1707       O  0.11970188  0.46714479  0.84461568    -0.39300
O1708       O  0.14745042  0.48228024  0.84493641    -0.37000
O1709       O  0.12741853  0.43985334  0.92357535    -0.37900
O1710       O  0.13375577  0.43116756  0.89393513    -0.34100
O1711       O  0.15543542  0.53309118  0.90369820    -0.35500
O1712       O  0.16625545  0.52388898  0.87550364    -0.39800
C1713       C  0.21594017  0.37756706  0.80679423    -0.13500
C1714       C  0.23103457  0.39047503  0.81024959     0.16900
C1715       C  0.24531348  0.39290627  0.79596574     0.03200
C1716       C  0.24485327  0.38159337  0.77905585    -0.12000
C1717       C  0.23102008  0.36671850  0.77624570    -0.03000
C1718       C  0.21519934  0.36619145  0.79001440     0.02500
C1719       C  0.23093928  0.40139111  0.82881457     0.09300
N1720       N  0.26050541  0.40666979  0.79850254     0.65700
H1721       H  0.25619272  0.38375511  0.76840355     0.18600
N1722       N  0.19758135  0.35545766  0.78729723     0.76100
H1723       H  0.20423206  0.37653558  0.81725371     0.10100
C1724       C  0.21745017  0.41628874  0.83207133     0.03800
C1725       C  0.21448658  0.42348958  0.85079344    -0.04900
C1726       C  0.22469443  0.41609180  0.86672400    -0.23300
C1727       C  0.23895401  0.40181860  0.86327305     0.13000
C1728       C  0.24194307  0.39463884  0.84443444    -0.12500
N1729       N  0.20604913  0.42370402  0.81657887     0.64700
H1730       H  0.20358870  0.43455325  0.85292398     0.12600
N1731       N  0.24946707  0.39339686  0.87884333     0.61300
H1732       H  0.25211866  0.38293849  0.84218235     0.08700
O1733       O  0.19231215  0.34377696  0.80022670    -0.40100
O1734       O  0.18467088  0.36217140  0.77637177    -0.39300
O1735       O  0.27525051  0.40235154  0.80834790    -0.39300
O1736       O  0.26037606  0.42208350  0.78891482    -0.37000
O1737       O  0.24274792  0.37868252  0.88716124    -0.37900
O1738       O  0.26684644  0.39831898  0.88176565    -0.34100
O1739       O  0.18849496  0.41875864  0.81499896    -0.35500
O1740       O  0.21239699  0.43764256  0.80677025    -0.39800
C1741       C  0.16399456  0.35086302  0.92774352    -0.13500
C1742       C  0.14885442  0.35254656  0.94123168     0.16900
C1743       C  0.14895012  0.36803985  0.95443024     0.03200
C1744       C  0.16287951  0.38257592  0.95256765    -0.12000
C1745       C  0.17709154  0.38175041  0.93800909    -0.03000
C1746       C  0.17814334  0.36526282  0.92607728     0.02500
C1747       C  0.13159991  0.33999871  0.93901986     0.09300
N1748       N  0.13471966  0.36941636  0.96946413     0.65700
H1749       H  0.16214775  0.39493170  0.96213972     0.18600
N1750       N  0.19218067  0.36383913  0.91090469     0.76100
H1751       H  0.16402437  0.33902230  0.91751246     0.10100
C1752       C  0.11369474  0.34782948  0.93308895     0.03800
C1753       C  0.09790928  0.33565675  0.92981747    -0.04900
C1754       C  0.09963015  0.31555638  0.93138540    -0.23300
C1755       C  0.11755995  0.30772104  0.93736014     0.13000
C1756       C  0.13333262  0.31998720  0.94117985    -0.12500
N1757       N  0.11172116  0.36789538  0.92871764     0.64700
H1758       H  0.08442806  0.34204093  0.92497195     0.12600
N1759       N  0.12022904  0.28741592  0.93904380     0.61300
H1760       H  0.14712252  0.31384514  0.94545666     0.08700
O1761       O  0.18806396  0.36991778  0.89425890    -0.40100
O1762       O  0.20716914  0.35368754  0.91326803    -0.39300
O1763       O  0.13608715  0.35857170  0.98398061    -0.39300
O1764       O  0.12358762  0.38383162  0.97022997    -0.37000
O1765       O  0.12910743  0.27838341  0.92587332    -0.37900
O1766       O  0.11724773  0.27935452  0.95508460    -0.34100
O1767       O  0.12186173  0.37518254  0.91539417    -0.35500
O1768       O  0.09750940  0.37727434  0.93542717    -0.39800
C1769       C  0.15411976  0.29641827  0.75037147    -0.13500
C1770       C  0.17393994  0.29215503  0.75137760     0.16900
C1771       C  0.17959397  0.27279447  0.75260681     0.03200
C1772       C  0.16565226  0.25820804  0.75236861    -0.12000
C1773       C  0.14549296  0.26187651  0.74979080    -0.03000
C1774       C  0.13996239  0.28180228  0.75009614     0.02500
C1775       C  0.18846336  0.30800928  0.75286274     0.09300
N1776       N  0.19963350  0.26756400  0.75392629     0.65700
H1777       H  0.17125170  0.24394715  0.75478540     0.18600
N1778       N  0.12009329  0.28775166  0.75058454     0.76100
H1779       H  0.14949623  0.31133313  0.75043411     0.10100
C1780       C  0.19014588  0.32231307  0.73866505     0.03800
C1781       C  0.20413733  0.33688687  0.74050910    -0.04900
C1782       C  0.21687872  0.33797721  0.75654041    -0.23300
C1783       C  0.21572161  0.32245289  0.77013123     0.13000
C1784       C  0.20120524  0.30842987  0.76851194    -0.12500
N1785       N  0.17869133  0.32144141  0.72150564     0.64700
H1786       H  0.20552668  0.34647342  0.72841758     0.12600
N1787       N  0.23000113  0.31960373  0.78485541     0.61300
H1788       H  0.20025290  0.29737487  0.77947578     0.08700
O1789       O  0.11325630  0.29637880  0.73610049    -0.40100
O1790       O  0.11225148  0.29065103  0.76683177    -0.39300
O1791       O  0.20596695  0.26003936  0.76922926    -0.39300
O1792       O  0.20994832  0.26716902  0.73883827    -0.37000
O1793       O  0.22780803  0.32749796  0.80112601    -0.37900
O1794       O  0.24102459  0.30512982  0.78360346    -0.34100
O1795       O  0.16650310  0.33453918  0.71806358    -0.35500
O1796       O  0.18296143  0.30944288  0.70844734    -0.39800
C1797       C  0.08793290  0.25284245  0.78709636    -0.13500
C1798       C  0.09877519  0.25407534  0.80417664     0.16900
C1799       C  0.11901149  0.25278766  0.80299006     0.03200
C1800       C  0.12802126  0.24976482  0.78515268    -0.12000
C1801       C  0.11754117  0.24766514  0.76762081    -0.03000
C1802       C  0.09686490  0.25018434  0.76884828     0.02500
C1803       C  0.08905136  0.25784042  0.82309894     0.09300
N1804       N  0.13076955  0.25521990  0.81979281     0.65700
H1805       H  0.14370589  0.24863663  0.78511285     0.18600
N1806       N  0.08460328  0.25174876  0.75221355     0.76100
H1807       H  0.07232334  0.25467363  0.78788383     0.10100
C1808       C  0.07933171  0.27531563  0.82664547     0.03800
C1809       C  0.07107085  0.27892649  0.84481682    -0.04900
C1810       C  0.07249342  0.26555270  0.86001869    -0.23300
C1811       C  0.08197434  0.24786270  0.85634318     0.13000
C1812       C  0.09013540  0.24418219  0.83801394    -0.12500
N1813       N  0.07876069  0.29005166  0.81228860     0.64700
H1814       H  0.06402540  0.29268472  0.84716986     0.12600
N1815       N  0.08362298  0.23356467  0.87101708     0.61300
H1816       H  0.09749240  0.23062236  0.83543853     0.08700
O1817       O  0.08572437  0.26660821  0.74185904    -0.40100
O1818       O  0.06912018  0.24203828  0.75160498    -0.39300
O1819       O  0.13743013  0.24065528  0.82836316    -0.39300
O1820       O  0.13693702  0.27175533  0.82420239    -0.37000
O1821       O  0.07043707  0.22108816  0.87286716    -0.37900
O1822       O  0.09961334  0.23124684  0.87953969    -0.34100
O1823       O  0.06271892  0.29500835  0.80509758    -0.35500
O1824       O  0.09368464  0.30011914  0.80912971    -0.39800
C1825       C  0.27481338  0.49758834  0.53061225    -0.13500
C1826       C  0.25852640  0.50967449  0.53020600     0.16900
C1827       C  0.24369964  0.50682112  0.54405572     0.03200
C1828       C  0.24542822  0.49212210  0.55795199    -0.12000
C1829       C  0.26187099  0.48012802  0.55852147    -0.03000
C1830       C  0.27669755  0.48308853  0.54456861     0.02500
C1831       C  0.25764391  0.52518747  0.51526954     0.09300
N1832       N  0.22664354  0.51851077  0.54400714     0.65700
H1833       H  0.23394661  0.49028482  0.56852146     0.18600
N1834       N  0.29388282  0.47155515  0.54433483     0.76100
H1835       H  0.28635755  0.49961978  0.52013469     0.10100
C1836       C  0.26010832  0.54478562  0.52008668     0.03800
C1837       C  0.26107365  0.55876468  0.50543290    -0.04900
C1838       C  0.26038522  0.55367078  0.48572531    -0.23300
C1839       C  0.25762198  0.53400651  0.48098723     0.13000
C1840       C  0.25610951  0.52010894  0.49568912    -0.12500
N1841       N  0.26350909  0.55053442  0.53962926     0.64700
H1842       H  0.26361753  0.57361031  0.50954697     0.12600
N1843       N  0.25757277  0.52764310  0.46135649     0.61300
H1844       H  0.25451155  0.50508371  0.49174266     0.08700
O1845       O  0.30908159  0.47770760  0.55240008    -0.40100
O1846       O  0.29489917  0.45717899  0.53319936    -0.39300
O1847       O  0.21309967  0.51462605  0.53240946    -0.39300
O1848       O  0.22348057  0.52991511  0.55788128    -0.37000
O1849       O  0.27341318  0.52319007  0.45328808    -0.37900
O1850       O  0.24177150  0.52276806  0.45358195    -0.34100
O1851       O  0.27988970  0.54740244  0.54710929    -0.35500
O1852       O  0.25193341  0.56205557  0.54781857    -0.39800
C1853       C  0.31766026  0.50149684  0.65785100    -0.13500
C1854       C  0.33718666  0.49585963  0.65755097     0.16900
C1855       C  0.34305486  0.48041211  0.64567047     0.03200
C1856       C  0.32931545  0.47093153  0.63430367    -0.12000
C1857       C  0.30964286  0.47621368  0.63490909    -0.03000
C1858       C  0.30385423  0.49182151  0.64672356     0.02500
C1859       C  0.35100980  0.50611077  0.67012379     0.09300
N1860       N  0.36259512  0.47340962  0.64588457     0.65700
H1861       H  0.33400578  0.45886477  0.62549784     0.18600
N1862       N  0.28401355  0.49770038  0.64808873     0.76100
H1863       H  0.31308155  0.51338639  0.66696494     0.10100
C1864       C  0.36669372  0.51665377  0.66247058     0.03800
C1865       C  0.37905785  0.52660265  0.67494393    -0.04900
C1866       C  0.37593196  0.52653417  0.69500595    -0.23300
C1867       C  0.36035532  0.51570806  0.70263766     0.13000
C1868       C  0.34806598  0.50564126  0.69015135    -0.12500
N1869       N  0.36964120  0.51827160  0.64207620     0.64700
H1870       H  0.39085281  0.53492046  0.66878374     0.12600
N1871       N  0.35643858  0.51518455  0.72290157     0.61300
H1872       H  0.33603018  0.49750944  0.69610873     0.08700
O1873       O  0.27784091  0.51091017  0.63725644    -0.40100
O1874       O  0.27398562  0.49259950  0.66246832    -0.39300
O1875       O  0.36922286  0.46591106  0.66107361    -0.39300
O1876       O  0.37174823  0.47131783  0.63019568    -0.37000
O1877       O  0.34311348  0.52559931  0.72985526    -0.37900
O1878       O  0.36346846  0.50179184  0.73296695    -0.34100
O1879       O  0.35781908  0.52790479  0.63212231    -0.35500
O1880       O  0.38572646  0.51339988  0.63476878    -0.39800
C1881       C  0.23547502  0.41955596  0.68575954    -0.13500
C1882       C  0.23424917  0.39945456  0.68564269     0.16900
C1883       C  0.23431848  0.38964266  0.66778588     0.03200
C1884       C  0.23684208  0.39993689  0.65050983    -0.12000
C1885       C  0.23933523  0.42004386  0.65063255    -0.03000
C1886       C  0.23797096  0.42988573  0.66854737     0.02500
C1887       C  0.23440049  0.38896221  0.70432876     0.09300
N1888       N  0.23217387  0.36919032  0.66702036     0.65700
H1889       H  0.23785162  0.39200593  0.63704607     0.18600
N1890       N  0.24005363  0.45030540  0.66970613     0.76100
H1891       H  0.23527745  0.42724824  0.69940181     0.10100
C1892       C  0.25118804  0.37960498  0.71079158     0.03800
C1893       C  0.25094109  0.36958839  0.72828933    -0.04900
C1894       C  0.23386964  0.36771104  0.73979008    -0.23300
C1895       C  0.21795019  0.37972293  0.73426617     0.13000
C1896       C  0.21818407  0.38951080  0.71647782    -0.12500
N1897       N  0.26896569  0.38083547  0.70013628     0.64700
H1898       H  0.26464082  0.36350430  0.73272786     0.12600
N1899       N  0.20131855  0.38235993  0.74630371     0.61300
H1900       H  0.20560714  0.39783820  0.71221536     0.08700
O1901       O  0.25545406  0.45736184  0.67654929    -0.40100
O1902       O  0.22525918  0.46085643  0.66794397    -0.39300
O1903       O  0.21540182  0.36191019  0.66771784    -0.39300
O1904       O  0.24640096  0.35881785  0.66209324    -0.37000
O1905       O  0.20212412  0.39496858  0.75943547    -0.37900
O1906       O  0.18487717  0.37761809  0.73981977    -0.34100
O1907       O  0.27930394  0.39575766  0.70165475    -0.35500
O1908       O  0.27618110  0.36582334  0.69273592    -0.39800
C1909       C  0.34040342  0.33042908  0.58002165    -0.13500
C1910       C  0.34191669  0.34997715  0.57508997     0.16900
C1911       C  0.36029697  0.35751527  0.57012759     0.03200
C1912       C  0.37678200  0.34577217  0.57123497    -0.12000
C1913       C  0.37550486  0.32665473  0.57764614    -0.03000
C1914       C  0.35697962  0.31873572  0.58132948     0.02500
C1915       C  0.32519150  0.36298254  0.57883699     0.09300
N1916       N  0.36283747  0.37754105  0.56603512     0.65700
H1917       H  0.39088553  0.35210116  0.56837770     0.18600
N1918       N  0.35489680  0.29951462  0.58831357     0.76100
H1919       H  0.32640269  0.32454260  0.58408184     0.10100
C1920       C  0.31677883  0.37458370  0.56438681     0.03800
C1921       C  0.30355502  0.38913163  0.56959735    -0.04900
C1922       C  0.29848542  0.39218334  0.58902025    -0.23300
C1923       C  0.30576612  0.37957967  0.60318631     0.13000
C1924       C  0.31906633  0.36525454  0.59803014    -0.12500
N1925       N  0.32149739  0.37176718  0.54446223     0.64700
H1926       H  0.29784696  0.39854208  0.55852881     0.12600
N1927       N  0.29979662  0.38118191  0.62291526     0.61300
H1928       H  0.32521010  0.35627898  0.60923896     0.08700
O1929       O  0.35132817  0.28603858  0.57659884    -0.40100
O1930       O  0.35325150  0.29658689  0.60622166    -0.39300
O1931       O  0.36068878  0.38976891  0.57938967    -0.39300
O1932       O  0.37091992  0.38256424  0.55046139    -0.37000
O1933       O  0.31155183  0.38742991  0.63538536    -0.37900
O1934       O  0.28425388  0.37319880  0.62833168    -0.34100
O1935       O  0.31375749  0.35800815  0.53537642    -0.35500
O1936       O  0.32963963  0.38511181  0.53513103    -0.39800
C1937       C  0.29096801  0.27902539  0.74934870    -0.13500
C1938       C  0.29814224  0.29773477  0.75080213     0.16900
C1939       C  0.31833032  0.30035914  0.75169422     0.03200
C1940       C  0.33073657  0.28429459  0.75220759    -0.12000
C1941       C  0.32375865  0.26508443  0.75233840    -0.03000
C1942       C  0.30321003  0.26291777  0.74883748     0.02500
C1943       C  0.28397510  0.31399257  0.75150857     0.09300
N1944       N  0.32653776  0.31923846  0.75125947     0.65700
H1945       H  0.34614820  0.28695397  0.75274465     0.18600
N1946       N  0.29414490  0.24529634  0.74285339     0.76100
H1947       H  0.27545844  0.27685934  0.74784970     0.10100
C1948       C  0.26936302  0.31572668  0.73755112     0.03800
C1949       C  0.25393044  0.32840875  0.74053986    -0.04900
C1950       C  0.25246928  0.34069164  0.75697262    -0.23300
C1951       C  0.26819062  0.33956160  0.77051824     0.13000
C1952       C  0.28335234  0.32617533  0.76763139    -0.12500
N1953       N  0.27016285  0.30491580  0.71994942     0.64700
H1954       H  0.24292188  0.32899905  0.72941790     0.12600
N1955       N  0.26968624  0.35148002  0.78725820     0.61300
H1956       H  0.29450290  0.32487331  0.77855656     0.08700
O1957       O  0.29563799  0.24017105  0.72542604    -0.40100
O1958       O  0.27964298  0.23933744  0.75229506    -0.39300
O1959       O  0.33403317  0.32623215  0.76632566    -0.39300
O1960       O  0.32944821  0.32732788  0.73521857    -0.37000
O1961       O  0.26247595  0.34569523  0.80296324    -0.37900
O1962       O  0.28324142  0.36370163  0.78787856    -0.34100
O1963       O  0.25704711  0.29278024  0.71623842    -0.35500
O1964       O  0.28155463  0.31019573  0.70667207    -0.39800
C1965       C  0.38083972  0.26245350  0.71619603    -0.13500
C1966       C  0.37114258  0.26048068  0.69855695     0.16900
C1967       C  0.35192289  0.25381711  0.69881582     0.03200
C1968       C  0.34264876  0.24997925  0.71642469    -0.12000
C1969       C  0.35201907  0.25162839  0.73455115    -0.03000
C1970       C  0.37172143  0.25851218  0.73399693     0.02500
C1971       C  0.38102929  0.26636972  0.68021185     0.09300
N1972       N  0.34125114  0.25148660  0.68130582     0.65700
H1973       H  0.32780554  0.24558000  0.71578230     0.18600
N1974       N  0.38268694  0.26299216  0.75094734     0.76100
H1975       H  0.39565806  0.26768715  0.71621982     0.10100
C1976       C  0.38846090  0.28514852  0.67798209     0.03800
C1977       C  0.39818587  0.29029795  0.66096945    -0.04900
C1978       C  0.40058291  0.27723188  0.64555387    -0.23300
C1979       C  0.39307112  0.25841029  0.64772445     0.13000
C1980       C  0.38348428  0.25314794  0.66495543    -0.12500
N1981       N  0.38552490  0.29947497  0.69257346     0.64700
H1982       H  0.40355356  0.30490651  0.65973594     0.12600
N1983       N  0.39491703  0.24449035  0.63262375     0.61300
H1984       H  0.37807495  0.23858825  0.66647821     0.08700
O1985       O  0.38060203  0.27926742  0.75882088    -0.40100
O1986       O  0.39798912  0.25358590  0.75428302    -0.39300
O1987       O  0.33854910  0.23479767  0.67458722    -0.39300
O1988       O  0.33136261  0.26534869  0.67491579    -0.37000
O1989       O  0.40932035  0.23326781  0.63243657    -0.37900
O1990       O  0.38058114  0.24098835  0.62187344    -0.34100
O1991       O  0.39981650  0.30560314  0.70214809    -0.35500
O1992       O  0.36958698  0.30840826  0.69336607    -0.39800
C1993       C  0.24355960  0.99647343  0.96455604    -0.13500
C1994       C  0.24490021  0.00255629  0.98391777     0.16900
C1995       C  0.24691788  0.02255100  0.98753606     0.03200
C1996       C  0.24837497  0.03562534  0.97213038    -0.12000
C1997       C  0.24779509  0.02946735  0.95279753    -0.03000
C1998       C  0.24481040  0.00960920  0.94913488     0.02500
C1999       C  0.24674796  0.98780835  0.99976734     0.09300
N2000       N  0.24788692  0.02988790  0.00681631     0.65700
H2001       H  0.25060614  0.05072378  0.97541321     0.18600
N2002       N  0.24381074  0.00233413  0.92984204     0.76100
H2003       H  0.24248342  0.98127116  0.96124526     0.10100
C2004       C  0.23444454  0.97149918  0.00121236     0.03800
C2005       C  0.23844589  0.95684611  0.01472039    -0.04900
C2006       C  0.25425693  0.95822539  0.02744684    -0.23300
C2007       C  0.26603975  0.97491147  0.02649830     0.13000
C2008       C  0.26242825  0.98914269  0.01263202    -0.12500
N2009       N  0.21765232  0.96969165  0.98927684     0.64700
H2010       H  0.22910954  0.94430267  0.01522702     0.12600
N2011       N  0.28251904  0.97721623  0.03877557     0.61300
H2012       H  0.27256116  0.00099527  0.01147147     0.08700
O2013       O  0.22750419  0.00071761  0.92174592    -0.40100
O2014       O  0.25846284  0.99423488  0.92243768    -0.39300
O2015       O  0.26321447  0.03803571  0.01254694    -0.39300
O2016       O  0.23245593  0.03179475  0.01649994    -0.37000
O2017       O  0.29899385  0.97155302  0.03310712    -0.37900
O2018       O  0.28121027  0.98766038  0.05366265    -0.34100
O2019       O  0.21667479  0.95617372  0.97710304    -0.35500
O2020       O  0.20251829  0.97905713  0.99350156    -0.39800
C2021       C  0.34884706  0.03722928  0.87255414    -0.13500
C2022       C  0.34816300  0.01709238  0.87229001     0.16900
C2023       C  0.33282486  0.00741544  0.88156532     0.03200
C2024       C  0.31831003  0.01797926  0.89078239    -0.12000
C2025       C  0.31856007  0.03817307  0.89057424    -0.03000
C2026       C  0.33411997  0.04786557  0.88144410     0.02500
C2027       C  0.36353204  0.00629569  0.86227010     0.09300
N2028       N  0.33123651  0.98690605  0.88079461     0.65700
H2029       H  0.30640736  0.01027769  0.89751903     0.18600
N2030       N  0.33491029  0.06840149  0.88046175     0.76100
H2031       H  0.36078286  0.04472808  0.86564535     0.10100
C2032       C  0.36725347  0.00917342  0.84250857     0.03800
C2033       C  0.38128158  0.99806098  0.83322343    -0.04900
C2034       C  0.39162892  0.98389770  0.84328168    -0.23300
C2035       C  0.38841713  0.98155374  0.86329061     0.13000
C2036       C  0.37443024  0.99279923  0.87259215    -0.12500
N2037       N  0.35620459  0.02260030  0.83145909     0.64700
H2038       H  0.38354046  0.00010393  0.81786882     0.12600
N2039       N  0.39897794  0.96775057  0.87433901     0.61300
H2040       H  0.37194113  0.99088920  0.88793148     0.08700
O2041       O  0.33083000  0.07675296  0.86483254    -0.40100
O2042       O  0.34300358  0.07776778  0.89383977    -0.39300
O2043       O  0.33357727  0.97713866  0.89594204    -0.39300
O2044       O  0.32455483  0.97891218  0.86583996    -0.37000
O2045       O  0.41517722  0.97233778  0.88146246    -0.37900
O2046       O  0.39052782  0.95270629  0.88011930    -0.34100
O2047       O  0.36419914  0.03774409  0.82530690    -0.35500
O2048       O  0.33986043  0.01768143  0.82491108    -0.39800
C2049       C  0.38349925  0.21706844  0.83198223    -0.13500
C2050       C  0.38657912  0.23516821  0.82355491     0.16900
C2051       C  0.39838615  0.24861458  0.83344708     0.03200
C2052       C  0.40670158  0.24382827  0.85137638    -0.12000
C2053       C  0.40388743  0.22556159  0.85953240    -0.03000
C2054       C  0.39209879  0.21212764  0.84960228     0.02500
C2055       C  0.37619478  0.24003197  0.80521107     0.09300
N2056       N  0.40276227  0.26687348  0.82506593     0.65700
H2057       H  0.41591550  0.25420741  0.85861888     0.18600
N2058       N  0.38799759  0.19362346  0.85764489     0.76100
H2059       H  0.37396556  0.20677352  0.82504234     0.10100
C2060       C  0.37709787  0.22797248  0.78889111     0.03800
C2061       C  0.36544657  0.23173433  0.77280228    -0.04900
C2062       C  0.35232220  0.24749412  0.77195476    -0.23300
C2063       C  0.35180390  0.25985367  0.78862440     0.13000
C2064       C  0.36370049  0.25592979  0.80468279    -0.12500
N2065       N  0.39004381  0.21189236  0.78824347     0.64700
H2066       H  0.36676101  0.22208739  0.76054453     0.12600
N2067       N  0.33927445  0.27615153  0.79036545     0.61300
H2068       H  0.36247427  0.26506948  0.81733485     0.08700
O2069       O  0.39658282  0.17891791  0.85112686    -0.40100
O2070       O  0.37372852  0.19160770  0.86893936    -0.39300
O2071       O  0.39568431  0.28199242  0.83237098    -0.39300
O2072       O  0.41633396  0.26815837  0.81285035    -0.37000
O2073       O  0.32228807  0.27383559  0.79679760    -0.37900
O2074       O  0.34685222  0.29264986  0.79163843    -0.34100
O2075       O  0.38325730  0.19501909  0.78855976    -0.35500
O2076       O  0.40753273  0.21447957  0.78342750    -0.39800
C2077       C  0.36265395  0.14638518  0.92483424    -0.13500
C2078       C  0.34567621  0.15547767  0.93133415     0.16900
C2079       C  0.34604974  0.17547972  0.93498701     0.03200
C2080       C  0.36321536  0.18597369  0.93172191    -0.12000
C2081       C  0.38024188  0.17679907  0.92524267    -0.03000
C2082       C  0.37978735  0.15670823  0.92183891     0.02500
C2083       C  0.32800275  0.14337854  0.93370114     0.09300
N2084       N  0.32948000  0.18517254  0.94280191     0.65700
H2085       H  0.36329422  0.20131644  0.93458230     0.18600
N2086       N  0.39643079  0.14653350  0.91482286     0.76100
H2087       H  0.36254325  0.13106373  0.92179162     0.10100
C2088       C  0.31140848  0.14580549  0.92203302     0.03800
C2089       C  0.29698523  0.13149871  0.92171821    -0.04900
C2090       C  0.29915205  0.11433448  0.93220804    -0.23300
C2091       C  0.31506146  0.11265040  0.94494267     0.13000
C2092       C  0.32913060  0.12717996  0.94569158    -0.12500
N2093       N  0.31002387  0.16146249  0.90874946     0.64700
H2094       H  0.28502456  0.13302176  0.91171013     0.12600
N2095       N  0.31785360  0.09577906  0.95635472     0.61300
H2096       H  0.34173467  0.12519362  0.95480915     0.08700
O2097       O  0.40665955  0.13689989  0.92638478    -0.40100
O2098       O  0.39905527  0.14467896  0.89686906    -0.39300
O2099       O  0.32505224  0.18271761  0.96031906    -0.39300
O2100       O  0.32205214  0.19902569  0.93368169    -0.37000
O2101       O  0.32975117  0.08309866  0.95076571    -0.37900
O2102       O  0.31186170  0.09558348  0.97358983    -0.34100
O2103       O  0.32049680  0.16145315  0.89375785    -0.35500
O2104       O  0.29575973  0.17282300  0.90981116    -0.39800
C2105       C  0.15626589  0.19606100  0.76369954    -0.13500
C2106       C  0.16955721  0.19441279  0.74853259     0.16900
C2107       C  0.16770528  0.20678169  0.73263638     0.03200
C2108       C  0.15370873  0.22133131  0.73284932    -0.12000
C2109       C  0.14162884  0.22491757  0.74913777    -0.03000
C2110       C  0.14221526  0.21072185  0.76425708     0.02500
C2111       C  0.18511088  0.17955777  0.74930013     0.09300
N2112       N  0.18103202  0.20585572  0.71679859     0.65700
H2113       H  0.15362376  0.23120853  0.72077283     0.18600
N2114       N  0.12895387  0.21012363  0.78020735     0.76100
H2115       H  0.15676185  0.18570385  0.77536327     0.10100
C2116       C  0.19811007  0.17840298  0.76485615     0.03800
C2117       C  0.21387302  0.16569875  0.76390669    -0.04900
C2118       C  0.21744150  0.15378901  0.74758436    -0.23300
C2119       C  0.20229983  0.15307356  0.73330729     0.13000
C2120       C  0.18690568  0.16629924  0.73421681    -0.12500
N2121       N  0.19640558  0.19103623  0.78112338     0.64700
H2122       H  0.22431806  0.16630878  0.77553266     0.12600
N2123       N  0.20131384  0.13902016  0.71813477     0.61300
H2124       H  0.17596116  0.16605395  0.72300587     0.08700
O2125       O  0.13577638  0.21033215  0.79711195    -0.40100
O2126       O  0.11236537  0.20289799  0.77771388    -0.39300
O2127       O  0.17518194  0.20026643  0.70046945    -0.39300
O2128       O  0.19730871  0.21407003  0.71817494    -0.37000
O2129       O  0.19949100  0.14478847  0.70096852    -0.37900
O2130       O  0.19567159  0.12222109  0.72205633    -0.34100
O2131       O  0.19142535  0.18436785  0.79733026    -0.35500
O2132       O  0.20249496  0.20812839  0.77997293    -0.39800
C2133       C  0.27121113  0.18902977  0.74428638    -0.13500
C2134       C  0.28928778  0.18092176  0.74825400     0.16900
C2135       C  0.29075689  0.16092847  0.75003021     0.03200
C2136       C  0.27402761  0.14957745  0.74843869    -0.12000
C2137       C  0.25510973  0.15754830  0.74662905    -0.03000
C2138       C  0.25424526  0.17796185  0.74326045     0.02500
C2139       C  0.30573559  0.19423521  0.75163519     0.09300
N2140       N  0.30879065  0.15200180  0.75484858     0.65700
H2141       H  0.27574546  0.13433167  0.75023374     0.18600
N2142       N  0.23696350  0.18818717  0.73809512     0.76100
H2143       H  0.27019796  0.20441841  0.74205071     0.10100
C2144       C  0.32040172  0.19741764  0.73787370     0.03800
C2145       C  0.33213355  0.21392126  0.73924518    -0.04900
C2146       C  0.32886388  0.22812994  0.75367552    -0.23300
C2147       C  0.31625234  0.22272629  0.76922675     0.13000
C2148       C  0.30475667  0.20620091  0.76779006    -0.12500
N2149       N  0.32299538  0.18454522  0.72195268     0.64700
H2150       H  0.34342064  0.21558847  0.72853528     0.12600
N2151       N  0.31377345  0.23433687  0.78612117     0.61300
H2152       H  0.29401302  0.20336091  0.77890962     0.08700
O2153       O  0.23214121  0.18887791  0.72055998    -0.40100
O2154       O  0.23142068  0.20171782  0.74899689    -0.39300
O2155       O  0.31446188  0.15225483  0.77215758    -0.39300
O2156       O  0.31662466  0.14049302  0.74303942    -0.37000
O2157       O  0.29813734  0.24359860  0.78820414    -0.37900
O2158       O  0.32320117  0.22987178  0.80104502    -0.34100
O2159       O  0.31353511  0.18718800  0.70661954    -0.35500
O2160       O  0.33726002  0.17314526  0.72183546    -0.39800
C2161       C  0.25088181  0.08608546  0.82311343    -0.13500
C2162       C  0.23766089  0.10131560  0.82222540     0.16900
C2163       C  0.22754412  0.10671050  0.83917433     0.03200
C2164       C  0.23173558  0.09760958  0.85686590    -0.12000
C2165       C  0.24589117  0.08304063  0.85799131    -0.03000
C2166       C  0.25499554  0.07689272  0.84060641     0.02500
C2167       C  0.23644044  0.11238960  0.80386432     0.09300
N2168       N  0.21330441  0.12165149  0.83873856     0.65700
H2169       H  0.22443891  0.10250561  0.86986586     0.18600
N2170       N  0.26907642  0.06178146  0.84045827     0.76100
H2171       H  0.25863993  0.08172091  0.81017240     0.10100
C2172       C  0.24916988  0.12770218  0.80039119     0.03800
C2173       C  0.24958649  0.13670382  0.78232681    -0.04900
C2174       C  0.23752882  0.13091222  0.76665353    -0.23300
C2175       C  0.22345752  0.11636417  0.77118601     0.13000
C2176       C  0.22366760  0.10688511  0.78921245    -0.12500
N2177       N  0.26164421  0.13460862  0.81534284     0.64700
H2178       H  0.25887005  0.14915721  0.78142210     0.12600
N2179       N  0.20736326  0.11241813  0.75888074     0.61300
H2180       H  0.21326119  0.09551823  0.79200545     0.08700
O2181       O  0.28692220  0.06590937  0.84029544    -0.40100
O2182       O  0.26379263  0.04478359  0.83673585    -0.39300
O2183       O  0.19553584  0.11724348  0.83838492    -0.39300
O2184       O  0.21816862  0.13869835  0.84277441    -0.37000
O2185       O  0.20669814  0.09644904  0.75019192    -0.37900
O2186       O  0.19155848  0.12093719  0.76245920    -0.34100
O2187       O  0.27914746  0.12928380  0.81575640    -0.35500
O2188       O  0.25615805  0.14838092  0.82595495    -0.39800
C2189       C  0.23878584  0.00119596  0.52445607    -0.13500
C2190       C  0.23773532  0.00803264  0.50540097     0.16900
C2191       C  0.23666311  0.02814096  0.50247683     0.03200
C2192       C  0.23498331  0.04069809  0.51832821    -0.12000
C2193       C  0.23474548  0.03373984  0.53733340    -0.03000
C2194       C  0.23739574  0.01379502  0.54033553     0.02500
C2195       C  0.23411309  0.99405891  0.48925836     0.09300
N2196       N  0.23674534  0.03600630  0.48343234     0.65700
H2197       H  0.23322968  0.05597326  0.51571293     0.18600
N2198       N  0.23605768  0.00577797  0.55925349     0.76100
H2199       H  0.23904041  0.98584132  0.52710842     0.10100
C2200       C  0.24589087  0.97769160  0.48597857     0.03800
C2201       C  0.24026178  0.96362561  0.47239234    -0.04900
C2202       C  0.22284470  0.96534423  0.46198357    -0.23300
C2203       C  0.21140250  0.98204060  0.46489204     0.13000
C2204       C  0.21706193  0.99603546  0.47837952    -0.12500
N2205       N  0.26348276  0.97500668  0.49650632     0.64700
H2206       H  0.24925473  0.95095869  0.47049577     0.12600
N2207       N  0.19369586  0.98489692  0.45458673     0.61300
H2208       H  0.20752370  0.00818212  0.48094975     0.08700
O2209       O  0.25090055  0.99850793  0.56698132    -0.40100
O2210       O  0.21953821  0.00265820  0.56650259    -0.39300
O2211       O  0.22189492  0.04462605  0.47724742    -0.39300
O2212       O  0.25263768  0.03768353  0.47447769    -0.37000
O2213       O  0.17773016  0.98078085  0.46256288    -0.37900
O2214       O  0.19377055  0.99499196  0.43947016    -0.34100
O2215       O  0.26456479  0.96175691  0.50888430    -0.35500
O2216       O  0.27877153  0.98338456  0.49099449    -0.39800
C2217       C  0.17185345  0.99864397  0.62878709    -0.13500
C2218       C  0.15501670  0.00638742  0.63719263     0.16900
C2219       C  0.14861776  0.02472244  0.63129718     0.03200
C2220       C  0.15940970  0.03516113  0.61770959    -0.12000
C2221       C  0.17675150  0.02776889  0.60991828    -0.03000
C2222       C  0.18273740  0.00908279  0.61529866     0.02500
C2223       C  0.14564717  0.99589872  0.65341187     0.09300
N2224       N  0.13134861  0.03305157  0.63919188     0.65700
H2225       H  0.15454195  0.04946448  0.61381563     0.18600
N2226       N  0.19984322  0.00042963  0.60739485     0.76100
H2227       H  0.17713331  0.98470515  0.63338369     0.10100
C2228       C  0.13983167  0.97653566  0.65148020     0.03800
C2229       C  0.13331983  0.96632820  0.66765984    -0.04900
C2230       C  0.13238052  0.97504578  0.68598422    -0.23300
C2231       C  0.13810316  0.99449629  0.68788778     0.13000
C2232       C  0.14461578  0.00469666  0.67166596    -0.12500
N2233       N  0.14031116  0.96708963  0.63311720     0.64700
H2234       H  0.12884069  0.95148560  0.66579507     0.12600
N2235       N  0.13840407  0.00382401  0.70630347     0.61300
H2236       H  0.14969145  0.01934837  0.67351847     0.08700
O2237       O  0.19815797  0.98559176  0.59697571    -0.40100
O2238       O  0.21612525  0.00425674  0.61478053    -0.39300
O2239       O  0.13257932  0.04735162  0.65040390    -0.39300
O2240       O  0.11507494  0.02852911  0.63220506    -0.37000
O2241       O  0.15282883  0.00155955  0.71725421    -0.37900
O2242       O  0.12614543  0.01680530  0.71009332    -0.34100
O2243       O  0.15256591  0.95393188  0.62998181    -0.35500
O2244       O  0.12659665  0.96962444  0.62136306    -0.39800
C2245       C  0.22533035  0.09235097  0.66897829    -0.13500
C2246       C  0.24145893  0.10438060  0.67120408     0.16900
C2247       C  0.25328956  0.10826992  0.65486382     0.03200
C2248       C  0.24843143  0.10039290  0.63671225    -0.12000
C2249       C  0.23201607  0.08861213  0.63453701    -0.03000
C2250       C  0.22059691  0.08439002  0.65105066     0.02500
C2251       C  0.24399888  0.11397434  0.69036302     0.09300
N2252       N  0.27029350  0.11999569  0.65645758     0.65700
H2253       H  0.25735265  0.10372507  0.62424383     0.18600
N2254       N  0.20405344  0.07196146  0.64991128     0.76100
H2255       H  0.21605204  0.08934822  0.68129301     0.10100
C2256       C  0.24247797  0.13398885  0.69232295     0.03800
C2257       C  0.24126141  0.14226745  0.71072023    -0.04900
C2258       C  0.24081653  0.13119031  0.72794412    -0.23300
C2259       C  0.24513771  0.11115660  0.72587080     0.13000
C2260       C  0.24578946  0.10278807  0.70719670    -0.12500
N2261       N  0.24044136  0.14633027  0.67588841     0.64700
H2262       H  0.23936479  0.15667940  0.71129673     0.12600
N2263       N  0.25084531  0.09926329  0.74177605     0.61300
H2264       H  0.24806122  0.08749837  0.70577867     0.08700
O2265       O  0.20623778  0.05434993  0.64592628    -0.40100
O2266       O  0.18734714  0.07835691  0.65385466    -0.39300
O2267       O  0.28458994  0.11400478  0.66606971    -0.39300
O2268       O  0.27244782  0.13430004  0.64545263    -0.37000
O2269       O  0.24270504  0.08315134  0.74402330    -0.37900
O2270       O  0.26756096  0.10150505  0.74881169    -0.34100
O2271       O  0.22570813  0.14476486  0.66519247    -0.35500
O2272       O  0.25118892  0.16094437  0.67427876    -0.39800
C2273       C  0.07965611  0.24683201  0.66325052    -0.13500
C2274       C  0.09718542  0.23892243  0.66989669     0.16900
C2275       C  0.10860764  0.22806321  0.65695108     0.03200
C2276       C  0.10209139  0.22456463  0.63808303    -0.12000
C2277       C  0.08419034  0.23176805  0.63149170    -0.03000
C2278       C  0.07310422  0.24337655  0.64424108     0.02500
C2279       C  0.10340114  0.24162155  0.69040013     0.09300
N2280       N  0.12678583  0.22018636  0.66290718     0.65700
H2281       H  0.11097601  0.21571005  0.62864703     0.18600
N2282       N  0.05469520  0.25086196  0.63853437     0.76100
H2283       H  0.07077666  0.25531985  0.67301825     0.10100
C2284       C  0.11450850  0.25753554  0.69601476     0.03800
C2285       C  0.12227260  0.25860333  0.71470274    -0.04900
C2286       C  0.11871850  0.24441296  0.72909106    -0.23300
C2287       C  0.10726779  0.22821875  0.72296106     0.13000
C2288       C  0.09982252  0.22719215  0.70400547    -0.12500
N2289       N  0.11902042  0.27235967  0.68246265     0.64700
H2290       H  0.13213979  0.27033922  0.71702016     0.12600
N2291       N  0.10501444  0.21145202  0.73472064     0.61300
H2292       H  0.09177897  0.21450829  0.69961950     0.08700
O2293       O  0.05335122  0.26818011  0.63326578    -0.40100
O2294       O  0.03947344  0.24131196  0.64188932    -0.39300
O2295       O  0.12765554  0.20291695  0.66842507    -0.39300
O2296       O  0.14227165  0.22929231  0.65951488    -0.37000
O2297       O  0.09137772  0.21079212  0.74686165    -0.37900
O2298       O  0.11257496  0.19583346  0.72912465    -0.34100
O2299       O  0.10999863  0.28814947  0.68325641    -0.35500
O2300       O  0.13408349  0.27098036  0.67213171    -0.39800
C2301       C  0.12962712  0.16255749  0.53880897    -0.13500
C2302       C  0.14449518  0.16298503  0.55269308     0.16900
C2303       C  0.14436556  0.17791608  0.56663089     0.03200
C2304       C  0.12847983  0.19050559  0.56776606    -0.12000
C2305       C  0.11236710  0.18804120  0.55570508    -0.03000
C2306       C  0.11334835  0.17451808  0.54057967     0.02500
C2307       C  0.15811476  0.14629904  0.55411416     0.09300
N2308       N  0.15899756  0.17911748  0.58116108     0.65700
H2309       H  0.12779139  0.20078380  0.57956497     0.18600
N2310       N  0.09738954  0.17194175  0.52769812     0.76100
H2311       H  0.12988075  0.15180219  0.52744992     0.10100
C2312       C  0.15083397  0.12727760  0.55439196     0.03800
C2313       C  0.16339603  0.11179688  0.55714967    -0.04900
C2314       C  0.18328444  0.11457203  0.56048243    -0.23300
C2315       C  0.19082558  0.13348907  0.55947445     0.13000
C2316       C  0.17825286  0.14910790  0.55610583    -0.12500
N2317       N  0.13045583  0.12342513  0.55344590     0.64700
H2318       H  0.15716592  0.09748907  0.55785578     0.12600
N2319       N  0.21102425  0.13719543  0.56227429     0.61300
H2320       H  0.18421817  0.16351719  0.55545432     0.08700
O2321       O  0.08570244  0.15819452  0.53030257    -0.40100
O2322       O  0.09695570  0.18118712  0.51205168    -0.39300
O2323       O  0.17121173  0.19264686  0.58061740    -0.39300
O2324       O  0.15735343  0.16918751  0.59630688    -0.37000
O2325       O  0.22211623  0.13841365  0.54778956    -0.37900
O2326       O  0.21689251  0.14302332  0.57851447    -0.34100
O2327       O  0.12369630  0.11404631  0.53935373    -0.35500
O2328       O  0.11990263  0.12648508  0.56806818    -0.39800
C2329       C  0.48963647  0.01438563  0.79729067    -0.13500
C2330       C  0.50233603  0.00940045  0.78227600     0.16900
C2331       C  0.49908952  0.99224115  0.77187319     0.03200
C2332       C  0.48364410  0.98003819  0.77707034    -0.12000
C2333       C  0.47137497  0.98465793  0.79266943    -0.03000
C2334       C  0.47424378  0.00234102  0.80250447     0.02500
C2335       C  0.52020763  0.02108352  0.77990210     0.09300
N2336       N  0.51137720  0.98704669  0.75605541     0.65700
H2337       H  0.48155297  0.96670714  0.76918639     0.18600
N2338       N  0.46173368  0.00830960  0.81792637     0.76100
H2339       H  0.49205734  0.02750888  0.80545098     0.10100
C2340       C  0.51937811  0.04036883  0.77371969     0.03800
C2341       C  0.53531539  0.05260450  0.77666581    -0.04900
C2342       C  0.55202074  0.04609981  0.78627319    -0.23300
C2343       C  0.55323697  0.02643420  0.79135799     0.13000
C2344       C  0.53747424  0.01411896  0.78793424    -0.12500
N2345       N  0.50197112  0.04803720  0.76562830     0.64700
H2346       H  0.53398473  0.06763304  0.77273093     0.12600
N2347       N  0.56986985  0.01895442  0.80105711     0.61300
H2348       H  0.53817859  0.99937778  0.79297895     0.08700
O2349       O  0.44572636  0.01626516  0.81413818    -0.40100
O2350       O  0.46796270  0.00844280  0.83504389    -0.39300
O2351       O  0.52367950  0.97375269  0.75805459    -0.39300
O2352       O  0.50757267  0.99323107  0.73937769    -0.37000
O2353       O  0.56951961  0.01720914  0.81919040    -0.37900
O2354       O  0.58280866  0.01033338  0.79142129    -0.34100
O2355       O  0.49116618  0.05874291  0.77576041    -0.35500
O2356       O  0.49923028  0.04691657  0.74765619    -0.39800
C2357       C  0.53310597  0.12970834  0.87539228    -0.13500
C2358       C  0.51493457  0.13318402  0.86712684     0.16900
C2359       C  0.51030307  0.12486948  0.84918464     0.03200
C2360       C  0.52416858  0.11383877  0.83940235    -0.12000
C2361       C  0.54280174  0.11111307  0.84711363    -0.03000
C2362       C  0.54709802  0.11879068  0.86555280     0.02500
C2363       C  0.50142955  0.14658312  0.87672494     0.09300
N2364       N  0.49204632  0.12855198  0.84015767     0.65700
H2365       H  0.52056734  0.10805427  0.82530905     0.18600
N2366       N  0.56593186  0.11681187  0.87391825     0.76100
H2367       H  0.53669305  0.13614122  0.88920782     0.10100
C2368       C  0.48498838  0.13984942  0.88665828     0.03800
C2369       C  0.47179095  0.15299020  0.89446370    -0.04900
C2370       C  0.47470625  0.17292336  0.89261599    -0.23300
C2371       C  0.49160051  0.17966128  0.88319263     0.13000
C2372       C  0.50476862  0.16643257  0.87527524    -0.12500
N2373       N  0.48159040  0.11971131  0.88906651     0.64700
H2374       H  0.45901116  0.14748021  0.90176146     0.12600
N2375       N  0.49571307  0.19976654  0.88169608     0.61300
H2376       H  0.51754962  0.17165487  0.86776144     0.08700
O2377       O  0.56805989  0.10659792  0.88879867    -0.40100
O2378       O  0.57941671  0.12799146  0.86875531    -0.39300
O2379       O  0.48982703  0.14374703  0.83047409    -0.39300
O2380       O  0.47976927  0.11515648  0.83863662    -0.37000
O2381       O  0.50554793  0.20793470  0.89469761    -0.37900
O2382       O  0.49274904  0.20836221  0.86595311    -0.34100
O2383       O  0.48916908  0.11111352  0.90318302    -0.35500
O2384       O  0.46791930  0.11173651  0.87997350    -0.39800
C2385       C  0.62364687  0.16357719  0.77177422    -0.13500
C2386       C  0.61817578  0.17951367  0.78315370     0.16900
C2387       C  0.60501609  0.17668497  0.79851386     0.03200
C2388       C  0.59813060  0.15818795  0.80259074    -0.12000
C2389       C  0.60422184  0.14210489  0.79177698    -0.03000
C2390       C  0.61701394  0.14495329  0.77609397     0.02500
C2391       C  0.62688991  0.19878967  0.77936742     0.09300
N2392       N  0.59930102  0.19227611  0.81079023     0.65700
H2393       H  0.58827841  0.15637159  0.81468851     0.18600
N2394       N  0.62438153  0.12903919  0.76520604     0.76100
H2395       H  0.63355724  0.16552351  0.75975726     0.10100
C2396       C  0.64708424  0.20122389  0.77860801     0.03800
C2397       C  0.65491733  0.21940088  0.77532013    -0.04900
C2398       C  0.64334012  0.23619039  0.77331360    -0.23300
C2399       C  0.62267655  0.23337522  0.77295968     0.13000
C2400       C  0.61496645  0.21484490  0.77625775    -0.12500
N2401       N  0.66000452  0.18551651  0.78214387     0.64700
H2402       H  0.67058802  0.22052322  0.77542537     0.12600
N2403       N  0.60904436  0.24832361  0.76843809     0.61300
H2404       H  0.59936994  0.21285693  0.77587200     0.08700
O2405       O  0.63913545  0.12010228  0.77116377    -0.40100
O2406       O  0.61839245  0.12613633  0.74824905    -0.39300
O2407       O  0.58238967  0.19912306  0.80945561    -0.39300
O2408       O  0.60962973  0.19659627  0.82517976    -0.37000
O2409       O  0.60844836  0.25492904  0.75152078    -0.37900
O2410       O  0.59430722  0.25058424  0.77909806    -0.34100
O2411       O  0.67032684  0.17899571  0.76852650    -0.35500
O2412       O  0.66388023  0.18087539  0.79930685    -0.39800
C2413       C  0.67033406  0.08047112  0.84337924    -0.13500
C2414       C  0.66924395  0.07027704  0.86079843     0.16900
C2415       C  0.65264840  0.05908902  0.86476323     0.03200
C2416       C  0.63678785  0.05971246  0.85219780    -0.12000
C2417       C  0.63710616  0.07145935  0.83573765    -0.03000
C2418       C  0.65444738  0.08116844  0.83082321     0.02500
C2419       C  0.68322750  0.07503605  0.87625015     0.09300
N2420       N  0.65080730  0.04874464  0.88248051     0.65700
H2421       H  0.62363050  0.05207464  0.85610623     0.18600
N2422       N  0.65540058  0.09366800  0.81448936     0.76100
H2423       H  0.68298163  0.08925373  0.84032150     0.10100
C2424       C  0.69685103  0.06175327  0.88340064     0.03800
C2425       C  0.70878241  0.06694279  0.89897706    -0.04900
C2426       C  0.70724080  0.08521590  0.90762036    -0.23300
C2427       C  0.69376888  0.09857394  0.90011128     0.13000
C2428       C  0.68200015  0.09338470  0.88458297    -0.12500
N2429       N  0.69890208  0.04311978  0.87486189     0.64700
H2430       H  0.71905705  0.05653537  0.90451661     0.12600
N2431       N  0.69188720  0.11753719  0.90797970     0.61300
H2432       H  0.67152701  0.10368616  0.87917591     0.08700
O2433       O  0.66509038  0.08868486  0.79981020    -0.40100
O2434       O  0.64958094  0.11083264  0.81604997    -0.39300
O2435       O  0.64472889  0.05737968  0.89737492    -0.39300
O2436       O  0.65100612  0.03058394  0.88218228    -0.37000
O2437       O  0.70081613  0.13134163  0.90015507    -0.37900
O2438       O  0.67874936  0.12100991  0.92025276    -0.34100
O2439       O  0.70864103  0.04126875  0.85950357    -0.35500
O2440       O  0.69452718  0.02835847  0.88451740    -0.39800
C2441       C  0.49732623  0.46357724  0.75316738    -0.13500
C2442       C  0.50306630  0.48279743  0.75079128     0.16900
C2443       C  0.52296251  0.48700638  0.74872120     0.03200
C2444       C  0.53657728  0.47198334  0.74764675    -0.12000
C2445       C  0.53074789  0.45261389  0.74877932    -0.03000
C2446       C  0.51090915  0.44852692  0.75230340     0.02500
C2447       C  0.48793583  0.49777495  0.74779912     0.09300
N2448       N  0.52940728  0.50639363  0.74636556     0.65700
H2449       H  0.55168548  0.47548428  0.74500026     0.18600
N2450       N  0.50400734  0.42915737  0.75336514     0.76100
H2451       H  0.48204345  0.46016666  0.75472789     0.10100
C2452       C  0.47768740  0.49836308  0.73028171     0.03800
C2453       C  0.46302359  0.51197909  0.72756478    -0.04900
C2454       C  0.45787561  0.52519846  0.74215648    -0.23300
C2455       C  0.46813266  0.52459431  0.75982151     0.13000
C2456       C  0.48318738  0.51105831  0.76241681    -0.12500
N2457       N  0.48202683  0.48510250  0.71504531     0.64700
H2458       H  0.45545648  0.51197865  0.71387123     0.12600
N2459       N  0.46323356  0.53726153  0.77536371     0.61300
H2460       H  0.49089167  0.51062960  0.77602389     0.08700
O2461       O  0.49703298  0.42122735  0.73850742    -0.40100
O2462       O  0.50150922  0.42144254  0.76965690    -0.39300
O2463       O  0.53625171  0.51539805  0.76065269    -0.39300
O2464       O  0.53156456  0.51315038  0.72960349    -0.37000
O2465       O  0.45039532  0.53230397  0.78740492    -0.37900
O2466       O  0.47401748  0.55147791  0.77904972    -0.34100
O2467       O  0.47197397  0.47002888  0.71317893    -0.35500
O2468       O  0.49354924  0.48997814  0.70172787    -0.39800
C2469       C  0.52460480  0.37344483  0.65202458    -0.13500
C2470       C  0.50603835  0.36752756  0.65782556     0.16900
C2471       C  0.49955723  0.37166251  0.67666318     0.03200
C2472       C  0.51183461  0.38106375  0.68962102    -0.12000
C2473       C  0.53076726  0.38632301  0.68422885    -0.03000
C2474       C  0.53705056  0.38273542  0.66507311     0.02500
C2475       C  0.49424378  0.35527902  0.64495901     0.09300
N2476       N  0.48065835  0.36591136  0.68296551     0.65700
H2477       H  0.50665076  0.38375787  0.70417487     0.18600
N2478       N  0.55602541  0.38817668  0.65870216     0.76100
H2479       H  0.52968152  0.37024182  0.63753629     0.10100
C2480       C  0.48372718  0.36299183  0.62944330     0.03800
C2481       C  0.47122096  0.35111908  0.61884188    -0.04900
C2482       C  0.46916496  0.33148374  0.62334511    -0.23300
C2483       C  0.48048634  0.32364576  0.63837040     0.13000
C2484       C  0.49280242  0.33559882  0.64905474    -0.12500
N2485       N  0.48504213  0.38296836  0.62478854     0.64700
H2486       H  0.46280816  0.35739703  0.60726031     0.12600
N2487       N  0.47896494  0.30383936  0.64364442     0.61300
H2488       H  0.50096313  0.32957843  0.66095714     0.08700
O2489       O  0.55824781  0.40349561  0.64920391    -0.40100
O2490       O  0.56974897  0.37617623  0.65953865    -0.39300
O2491       O  0.47880370  0.35146228  0.69381432    -0.39300
O2492       O  0.46637310  0.37694874  0.68031161    -0.37000
O2493       O  0.49167523  0.29206493  0.63784897    -0.37900
O2494       O  0.46737262  0.29895359  0.65690186    -0.34100
O2495       O  0.49599806  0.38831539  0.61118432    -0.35500
O2496       O  0.47289364  0.39464095  0.63185507    -0.39800
C2497       C  0.61713190  0.34456500  0.76777853    -0.13500
C2498       C  0.60835223  0.32672128  0.76402558     0.16900
C2499       C  0.58926544  0.32627714  0.75692164     0.03200
C2500       C  0.57964868  0.34350994  0.75261356    -0.12000
C2501       C  0.58871868  0.36145839  0.75533948    -0.03000
C2502       C  0.60746837  0.36188917  0.76363002     0.02500
C2503       C  0.61981314  0.30872956  0.76587082     0.09300
N2504       N  0.57991056  0.30835673  0.75294536     0.65700
H2505       H  0.56527265  0.34278487  0.74633840     0.18600
N2506       N  0.61746673  0.37966213  0.76663293     0.76100
H2507       H  0.63184953  0.34502598  0.77325328     0.10100
C2508       C  0.63269504  0.30308809  0.75121114     0.03800
C2509       C  0.64344811  0.28611793  0.75300279    -0.04900
C2510       C  0.64185212  0.27398357  0.76935642    -0.23300
C2511       C  0.62977939  0.28085847  0.78485581     0.13000
C2512       C  0.61852926  0.29760950  0.78260017    -0.12500
N2513       N  0.63566092  0.31497147  0.73465390     0.64700
H2514       H  0.65392255  0.28340573  0.74175200     0.12600
N2515       N  0.63034025  0.27248090  0.80372581     0.61300
H2516       H  0.60933982  0.30243320  0.79439332     0.08700
O2517       O  0.62898265  0.38582095  0.75385547    -0.40100
O2518       O  0.61752644  0.38723741  0.78321573    -0.39300
O2519       O  0.56837871  0.30123340  0.76518267    -0.39300
O2520       O  0.58124821  0.30093676  0.73634208    -0.37000
O2521       O  0.64058543  0.28055333  0.81648141    -0.37900
O2522       O  0.61679279  0.26150895  0.80910389    -0.34100
O2523       O  0.65013068  0.32609983  0.73401728    -0.35500
O2524       O  0.62582183  0.31206087  0.71959355    -0.39800
C2525       C  0.62995141  0.43314736  0.66578364    -0.13500
C2526       C  0.64647964  0.42234950  0.67050711     0.16900
C2527       C  0.64808024  0.41457076  0.68919216     0.03200
C2528       C  0.63258815  0.41644873  0.70225670    -0.12000
C2529       C  0.61525083  0.42562876  0.69683573    -0.03000
C2530       C  0.61437688  0.43482088  0.67870608     0.02500
C2531       C  0.66094074  0.41808380  0.65514676     0.09300
N2532       N  0.66447779  0.40315082  0.69445375     0.65700
H2533       H  0.63353481  0.40922373  0.71607007     0.18600
N2534       N  0.59756454  0.44539145  0.67295492     0.76100
H2535       H  0.62882619  0.43968960  0.65164048     0.10100
C2536       C  0.65507818  0.40849167  0.63821715     0.03800
C2537       C  0.66825907  0.40568168  0.62317229    -0.04900
C2538       C  0.68758691  0.41202033  0.62451294    -0.23300
C2539       C  0.69368388  0.42122001  0.64169248     0.13000
C2540       C  0.68032437  0.42417632  0.65685963    -0.12500
N2541       N  0.63578309  0.40114161  0.63624811     0.64700
H2542       H  0.66319598  0.39838339  0.61029352     0.12600
N2543       N  0.71327349  0.42752854  0.64404064     0.61300
H2544       H  0.68499499  0.43154369  0.66985172     0.08700
O2545       O  0.58687281  0.43896540  0.65965007    -0.40100
O2546       O  0.59523680  0.46243014  0.67888751    -0.39300
O2547       O  0.67570230  0.40890438  0.70762515    -0.39300
O2548       O  0.66589597  0.38609994  0.68827001    -0.37000
O2549       O  0.71799129  0.44430277  0.63889704    -0.37900
O2550       O  0.72471922  0.41787995  0.65440169    -0.34100
O2551       O  0.62444177  0.40844131  0.62401139    -0.35500
O2552       O  0.63118194  0.38559172  0.64445002    -0.39800
C2553       C  0.72192080  0.26312403  0.70448478    -0.13500
C2554       C  0.70879487  0.24783672  0.70485049     0.16900
C2555       C  0.70940616  0.23436616  0.68959516     0.03200
C2556       C  0.72430788  0.23543407  0.67560683    -0.12000
C2557       C  0.74014763  0.24836161  0.67764100    -0.03000
C2558       C  0.73745890  0.26353598  0.69142654     0.02500
C2559       C  0.69493868  0.24671633  0.72143713     0.09300
N2560       N  0.69593792  0.21873530  0.68883481     0.65700
H2561       H  0.72368550  0.22544309  0.66365059     0.18600
N2562       N  0.75053231  0.27939552  0.69301040     0.76100
H2563       H  0.72071501  0.27448803  0.71518710     0.10100
C2564       C  0.70170996  0.24671467  0.74059605     0.03800
C2565       C  0.68879288  0.24900759  0.75594453    -0.04900
C2566       C  0.66862221  0.25190910  0.75325742    -0.23300
C2567       C  0.66173506  0.24883525  0.73398015     0.13000
C2568       C  0.67487495  0.24712603  0.71841186    -0.12500
N2569       N  0.72172641  0.24373038  0.74499080     0.64700
H2570       H  0.69510430  0.24802312  0.77014572     0.12600
N2571       N  0.64155126  0.24708364  0.72971776     0.61300
H2572       H  0.66929386  0.24629197  0.70382664     0.08700
O2573       O  0.76384547  0.27876014  0.70546234    -0.40100
O2574       O  0.74503288  0.29561908  0.68694400    -0.39300
O2575       O  0.68272952  0.21869962  0.67625431    -0.39300
O2576       O  0.69957025  0.20347482  0.69798113    -0.37000
O2577       O  0.63363433  0.25977273  0.71937386    -0.37900
O2578       O  0.63401006  0.23053502  0.73029034    -0.34100
O2579       O  0.73235387  0.25811849  0.74847490    -0.35500
O2580       O  0.72699387  0.22737100  0.75088359    -0.39800
C2581       C  0.75390147  0.33614179  0.63014351    -0.13500
C2582       C  0.75655603  0.31895993  0.61964267     0.16900
C2583       C  0.75656026  0.31999421  0.59925764     0.03200
C2584       C  0.75282702  0.33762976  0.58995089    -0.12000
C2585       C  0.74967993  0.35470842  0.60052393    -0.03000
C2586       C  0.75095717  0.35386812  0.62086467     0.02500
C2587       C  0.75842920  0.30018957  0.63029978     0.09300
N2588       N  0.76067670  0.30334837  0.58778452     0.65700
H2589       H  0.75213084  0.33789522  0.57432354     0.18600
N2590       N  0.74815618  0.37069316  0.63244771     0.76100
H2591       H  0.75350944  0.33577363  0.64576826     0.10100
C2592       C  0.77169859  0.29801711  0.64551860     0.03800
C2593       C  0.77181928  0.28118837  0.65660493    -0.04900
C2594       C  0.75958877  0.26516924  0.65277318    -0.23300
C2595       C  0.74541322  0.26801585  0.63799312     0.13000
C2596       C  0.74523019  0.28511778  0.62692924    -0.12500
N2597       N  0.78498921  0.31307497  0.65038595     0.64700
H2598       H  0.78089548  0.28177158  0.66918854     0.12600
N2599       N  0.73018058  0.25435070  0.63478135     0.61300
H2600       H  0.73411222  0.28690565  0.61605502     0.08700
O2601       O  0.76270655  0.38014867  0.63814157    -0.40100
O2602       O  0.73161627  0.37427505  0.63947615    -0.39300
O2603       O  0.74706518  0.29494448  0.57899466    -0.39300
O2604       O  0.77803812  0.29963481  0.58323432    -0.37000
O2605       O  0.73337007  0.23953242  0.62468875    -0.37900
O2606       O  0.71284051  0.25926655  0.63809806    -0.34100
O2607       O  0.78309147  0.32190673  0.66623781    -0.35500
O2608       O  0.80059610  0.31474884  0.64095051    -0.39800
C2609       C  0.70895244  0.26420713  0.85341283    -0.13500
C2610       C  0.71234034  0.26290605  0.83353001     0.16900
C2611       C  0.73162991  0.26278339  0.82690273     0.03200
C2612       C  0.74691451  0.26215992  0.84009648    -0.12000
C2613       C  0.74381842  0.26035024  0.86028512    -0.03000
C2614       C  0.72433987  0.26388725  0.86672546     0.02500
C2615       C  0.69578305  0.26270303  0.81976996     0.09300
N2616       N  0.73603674  0.26289283  0.80670155     0.65700
H2617       H  0.76128254  0.26319899  0.83398855     0.18600
N2618       N  0.71979590  0.26859090  0.88633635     0.76100
H2619       H  0.69423245  0.26613568  0.85865001     0.10100
C2620       C  0.68131733  0.24845634  0.82061285     0.03800
C2621       C  0.66723216  0.24733113  0.80610824    -0.04900
C2622       C  0.66765503  0.25960593  0.78975777    -0.23300
C2623       C  0.68076132  0.27556889  0.79065022     0.13000
C2624       C  0.69463565  0.27672964  0.80536727    -0.12500
N2625       N  0.68138434  0.23426468  0.83551591     0.64700
H2626       H  0.65625615  0.23635956  0.80774496     0.12600
N2627       N  0.68082234  0.29040782  0.77637380     0.61300
H2628       H  0.70494723  0.28851251  0.80525604     0.08700
O2629       O  0.70802808  0.25803675  0.89544805    -0.40100
O2630       O  0.72126167  0.28598039  0.89145349    -0.39300
O2631       O  0.74394414  0.27749356  0.79924987    -0.39300
O2632       O  0.73486043  0.24749314  0.79706907    -0.37000
O2633       O  0.67175105  0.30581013  0.77991538    -0.37900
O2634       O  0.69412155  0.29062525  0.76379474    -0.34100
O2635       O  0.66840450  0.23457185  0.84841709    -0.35500
O2636       O  0.69240896  0.21982626  0.83404169    -0.39800
C2637       C  0.74761479  0.20662130  0.89740375    -0.13500
C2638       C  0.76420195  0.20306538  0.90841281     0.16900
C2639       C  0.77843732  0.21745524  0.90960322     0.03200
C2640       C  0.77614003  0.23465754  0.89932405    -0.12000
C2641       C  0.75984520  0.23845659  0.88737223    -0.03000
C2642       C  0.74516895  0.22368513  0.88674994     0.02500
C2643       C  0.76642388  0.18382196  0.91770353     0.09300
N2644       N  0.79594226  0.21442900  0.92020624     0.65700
H2645       H  0.78773223  0.24514768  0.90028581     0.18600
N2646       N  0.72838523  0.22431290  0.87460057     0.76100
H2647       H  0.73662125  0.19549022  0.89639104     0.10100
C2648       C  0.76668267  0.18151648  0.93794116     0.03800
C2649       C  0.76617620  0.16294801  0.94593963    -0.04900
C2650       C  0.76490970  0.14642033  0.93419100    -0.23300
C2651       C  0.76598761  0.14875694  0.91393177     0.13000
C2652       C  0.76671114  0.16730803  0.90594794    -0.12500
N2653       N  0.76551388  0.19779751  0.95058357     0.64700
H2654       H  0.76520926  0.16157122  0.96149802     0.12600
N2655       N  0.76482822  0.13259374  0.90117876     0.61300
H2656       H  0.76669178  0.16885957  0.89037572     0.08700
O2657       O  0.73024324  0.22050662  0.85688415    -0.40100
O2658       O  0.71190867  0.22178249  0.88221881    -0.39300
O2659       O  0.80911985  0.20396807  0.91305130    -0.39300
O2660       O  0.79986872  0.22524517  0.93433803    -0.37000
O2661       O  0.74909698  0.12896226  0.89261457    -0.37900
O2662       O  0.78016616  0.12403398  0.89604779    -0.34100
O2663       O  0.75010946  0.20762169  0.95120017    -0.35500
O2664       O  0.77810535  0.20003363  0.96359761    -0.39800
C2665       C  0.84324060  0.26479419  0.82009989    -0.13500
C2666       C  0.83225489  0.24835189  0.82477927     0.16900
C2667       C  0.83619014  0.23141775  0.81399138     0.03200
C2668       C  0.84715716  0.23246023  0.79695462    -0.12000
C2669       C  0.85704994  0.24934550  0.79120574    -0.03000
C2670       C  0.85716207  0.26464434  0.80510272     0.02500
C2671       C  0.81573344  0.24933409  0.83933975     0.09300
N2672       N  0.83002807  0.21283280  0.82053555     0.65700
H2673       H  0.84839726  0.21954541  0.78841963     0.18600
N2674       N  0.87203354  0.27911454  0.80567064     0.76100
H2675       H  0.84151139  0.27790189  0.82829123     0.10100
C2676       C  0.81527524  0.26201824  0.85543868     0.03800
C2677       C  0.79807717  0.26433452  0.86632807    -0.04900
C2678       C  0.78102242  0.25346646  0.86265709    -0.23300
C2679       C  0.78307870  0.23846776  0.84863327     0.13000
C2680       C  0.79920106  0.23793853  0.83629416    -0.12500
N2681       N  0.83228736  0.27200951  0.86171783     0.64700
H2682       H  0.79866701  0.27418667  0.87841535     0.12600
N2683       N  0.76894091  0.22362806  0.84619610     0.61300
H2684       H  0.79846316  0.22826951  0.82408643     0.08700
O2685       O  0.86754639  0.29640825  0.80914179    -0.40100
O2686       O  0.88946131  0.27401731  0.80789344    -0.39300
O2687       O  0.82180544  0.20133299  0.80901483    -0.39300
O2688       O  0.83563786  0.20678829  0.83675374    -0.37000
O2689       O  0.76028805  0.22231721  0.83019852    -0.37900
O2690       O  0.77072864  0.20859289  0.85622076    -0.34100
O2691       O  0.83191226  0.29008375  0.86365179    -0.35500
O2692       O  0.84637145  0.26261268  0.86849485    -0.39800
C2693       C  0.84342834  0.24726325  0.71937177    -0.13500
C2694       C  0.82350679  0.24874682  0.72345091     0.16900
C2695       C  0.81785336  0.25096729  0.74302114     0.03200
C2696       C  0.83161757  0.24965845  0.75778371    -0.12000
C2697       C  0.85176568  0.24838443  0.75389688    -0.03000
C2698       C  0.85744617  0.24837730  0.73401384     0.02500
C2699       C  0.80857310  0.24667881  0.70772825     0.09300
N2700       N  0.79834056  0.25603272  0.74819597     0.65700
H2701       H  0.82624184  0.25153003  0.77231951     0.18600
N2702       N  0.87733551  0.25025583  0.72823092     0.76100
H2703       H  0.84843690  0.24527673  0.70470540     0.10100
C2704       C  0.81087891  0.25360065  0.68867511     0.03800
C2705       C  0.79593534  0.25101376  0.67513095    -0.04900
C2706       C  0.77708792  0.24497340  0.68059047    -0.23300
C2707       C  0.77604499  0.23550789  0.69897170     0.13000
C2708       C  0.79169906  0.23626101  0.71176152    -0.12500
N2709       N  0.82758107  0.26440767  0.68295662     0.64700
H2710       H  0.79871213  0.25577236  0.66062143     0.12600
N2711       N  0.75988682  0.22423891  0.70521001     0.61300
H2712       H  0.79041593  0.22855618  0.72527820     0.08700
O2713       O  0.88687566  0.23544175  0.72359551    -0.40100
O2714       O  0.88316572  0.26642266  0.72229111    -0.39300
O2715       O  0.78914664  0.24605787  0.76038881    -0.39300
O2716       O  0.79158819  0.27211870  0.74310204    -0.37000
O2717       O  0.74817466  0.23191310  0.71687611    -0.37900
O2718       O  0.76216589  0.20623822  0.70627041    -0.34100
O2719       O  0.83821021  0.25826022  0.66939389    -0.35500
O2720       O  0.82927675  0.28165208  0.68847574    -0.39800
C2721       C  0.80002037  0.16619561  0.63290151    -0.13500
C2722       C  0.78074435  0.17182668  0.62974193     0.16900
C2723       C  0.76795746  0.15877952  0.62067325     0.03200
C2724       C  0.77442383  0.14028648  0.61534178    -0.12000
C2725       C  0.79373859  0.13464517  0.61843162    -0.03000
C2726       C  0.80659429  0.14782075  0.62739447     0.02500
C2727       C  0.77386461  0.19075000  0.63738471     0.09300
N2728       N  0.74868977  0.16455278  0.61578669     0.65700
H2729       H  0.76453749  0.13063063  0.60797311     0.18600
N2730       N  0.82627492  0.14256962  0.63142006     0.76100
H2731       H  0.80990207  0.17597394  0.64012088     0.10100
C2732       C  0.76248271  0.19170318  0.65412338     0.03800
C2733       C  0.75696342  0.20956548  0.66172718    -0.04900
C2734       C  0.76230510  0.22744253  0.65339250    -0.23300
C2735       C  0.77412689  0.22610416  0.63624125     0.13000
C2736       C  0.77944137  0.20797303  0.62854676    -0.12500
N2737       N  0.75762164  0.17460593  0.66454271     0.64700
H2738       H  0.74883040  0.20900793  0.67487854     0.12600
N2739       N  0.78139685  0.24265177  0.62629675     0.61300
H2740       H  0.78841966  0.20737604  0.61567401     0.08700
O2741       O  0.84009464  0.15199470  0.62406530    -0.40100
O2742       O  0.82988601  0.12858089  0.64243706    -0.39300
O2743       O  0.74596224  0.17456340  0.60086259    -0.39300
O2744       O  0.73436456  0.15689431  0.62416801    -0.37000
O2745       O  0.79934802  0.24617699  0.62709300    -0.37900
O2746       O  0.77211435  0.24868414  0.61184943    -0.34100
O2747       O  0.77022579  0.16681175  0.67514848    -0.35500
O2748       O  0.74008169  0.16958705  0.66611183    -0.39800
C2749       C  0.03646053  0.04073951  0.76503052    -0.13500
C2750       C  0.02860347  0.02290244  0.77034305     0.16900
C2751       C  0.00883233  0.02208198  0.77586925     0.03200
C2752       C  0.99710396  0.03865044  0.77450673    -0.12000
C2753       C  0.00477673  0.05632924  0.76817642    -0.03000
C2754       C  0.02490863  0.05731651  0.76401380     0.02500
C2755       C  0.04105908  0.00537784  0.76805496     0.09300
N2756       N  0.00054488  0.00466574  0.78316200     0.65700
H2757       H  0.98182059  0.03756976  0.77810095     0.18600
N2758       N  0.03377537  0.07480719  0.75771468     0.76100
H2759       H  0.05160454  0.04167340  0.76081385     0.10100
C2760       C  0.03647710  0.99080911  0.75452536     0.03800
C2761       C  0.05004794  0.97626750  0.75034191    -0.04900
C2762       C  0.06857347  0.97607576  0.75886482    -0.23300
C2763       C  0.07274188  0.99006617  0.77313282     0.13000
C2764       C  0.05905720  0.00449364  0.77754715    -0.12500
N2765       N  0.01899078  0.99160539  0.74343543     0.64700
H2766       H  0.04649556  0.96579679  0.73927398     0.12600
N2767       N  0.09119178  0.99057435  0.78246880     0.61300
H2768       H  0.06283707  0.01557770  0.78792031     0.08700
O2769       O  0.03695534  0.07739798  0.73995414    -0.40100
O2770       O  0.04161525  0.08581208  0.76993951    -0.39300
O2771       O  0.00584950  0.99846477  0.79942192    -0.39300
O2772       O  0.98548888  0.99778061  0.77542883    -0.37000
O2773       O  0.10356162  0.00305467  0.77756863    -0.37900
O2774       O  0.09378815  0.98093288  0.79765427    -0.34100
O2775       O  0.01652190  0.00515519  0.73159158    -0.35500
O2776       O  0.00796808  0.97710570  0.74273539    -0.39800
C2777       C  0.01864054  0.14447328  0.68493804    -0.13500
C2778       C  0.00735712  0.14520868  0.66814377     0.16900
C2779       C  0.98895573  0.13647652  0.66787242     0.03200
C2780       C  0.98216490  0.12702210  0.68427903    -0.12000
C2781       C  0.99341350  0.12607779  0.70112378    -0.03000
C2782       C  0.01179947  0.13505801  0.70145855     0.02500
C2783       C  0.01520221  0.15485616  0.65092489     0.09300
N2784       N  0.97724100  0.13658757  0.65087428     0.65700
H2785       H  0.96796411  0.12031629  0.68375419     0.18600
N2786       N  0.02383536  0.13443262  0.71821135     0.76100
H2787       H  0.03283750  0.15120744  0.68517417     0.10100
C2788       C  0.00750818  0.17241700  0.64438695     0.03800
C2789       C  0.01571033  0.18134534  0.62826074    -0.04900
C2790       C  0.03186793  0.17331221  0.61876970    -0.23300
C2791       C  0.03924508  0.15544157  0.62515038     0.13000
C2792       C  0.03079699  0.14637115  0.64108782    -0.12500
N2793       N  0.99227869  0.18198196  0.65472507     0.64700
H2794       H  0.00996552  0.19513813  0.62375944     0.12600
N2795       N  0.05580918  0.14671767  0.61625245     0.61300
H2796       H  0.03669453  0.13280597  0.64607943     0.08700
O2797       O  0.02484243  0.14895291  0.72915472    -0.40100
O2798       O  0.03593126  0.12093378  0.72010734    -0.39300
O2799       O  0.98095654  0.12487971  0.63739656    -0.39300
O2800       O  0.96110387  0.14519132  0.65110747    -0.37000
O2801       O  0.07250814  0.14997564  0.62295938    -0.37900
O2802       O  0.05346731  0.13317257  0.60430685    -0.34100
O2803       O  0.99589594  0.18971443  0.67083027    -0.35500
O2804       O  0.97661251  0.18597186  0.64622871    -0.39800
C2805       C  0.88990071  0.19738904  0.76280402    -0.13500
C2806       C  0.90504820  0.19766551  0.77619696     0.16900
C2807       C  0.90781552  0.21443955  0.78721639     0.03200
C2808       C  0.89558293  0.23039276  0.78468234    -0.12000
C2809       C  0.88044923  0.23081436  0.77084910    -0.03000
C2810       C  0.87723632  0.21310487  0.76035974     0.02500
C2811       C  0.91812246  0.18050005  0.77774267     0.09300
N2812       N  0.92261355  0.21532941  0.80159598     0.65700
H2813       H  0.89797257  0.24272620  0.79385664     0.18600
N2814       N  0.86070663  0.20967848  0.74824054     0.76100
H2815       H  0.88752469  0.18445946  0.75434179     0.10100
C2816       C  0.91071235  0.16186378  0.78133836     0.03800
C2817       C  0.92276897  0.14562595  0.77937195    -0.04900
C2818       C  0.94232967  0.14746764  0.77385681    -0.23300
C2819       C  0.95006499  0.16622725  0.77164210     0.13000
C2820       C  0.93796701  0.18244247  0.77348442    -0.12500
N2821       N  0.89082974  0.15916923  0.78664335     0.64700
H2822       H  0.91648395  0.13144357  0.78119495     0.12600
N2823       N  0.97010455  0.16906827  0.76704532     0.61300
H2824       H  0.94396930  0.19659464  0.77074132     0.08700
O2825       O  0.84423679  0.20725835  0.75588505    -0.40100
O2826       O  0.86338671  0.20344845  0.73128875    -0.39300
O2827       O  0.93709763  0.22617322  0.79908292    -0.39300
O2828       O  0.91938220  0.20838047  0.81811040    -0.37000
O2829       O  0.97493975  0.17435210  0.75028605    -0.37900
O2830       O  0.98246082  0.16953990  0.78044996    -0.34100
O2831       O  0.87925176  0.15146493  0.77483727    -0.35500
O2832       O  0.88580017  0.16113069  0.80407491    -0.39800
C2833       C  0.90984963  0.06059852  0.68693265    -0.13500
C2834       C  0.89208884  0.07050830  0.68828533     0.16900
C2835       C  0.88874057  0.08229887  0.70461866     0.03200
C2836       C  0.90349504  0.08508077  0.71827672    -0.12000
C2837       C  0.92187151  0.07656596  0.71594887    -0.03000
C2838       C  0.92474648  0.06367558  0.70036070     0.02500
C2839       C  0.87796032  0.06942170  0.67192134     0.09300
N2840       N  0.87097271  0.09268536  0.70688635     0.65700
H2841       H  0.90087629  0.09495617  0.73014612     0.18600
N2842       N  0.94289803  0.05409593  0.69749994     0.76100
H2843       H  0.91245727  0.05087478  0.67494200     0.10100
C2844       C  0.88412975  0.07278134  0.65275456     0.03800
C2845       C  0.87075416  0.07223812  0.63762717    -0.04900
C2846       C  0.85088209  0.06895958  0.64094930    -0.23300
C2847       C  0.84469520  0.06504126  0.66002181     0.13000
C2848       C  0.85823161  0.06518217  0.67524936    -0.12500
N2849       N  0.90375111  0.07806104  0.64847940     0.64700
H2850       H  0.87594734  0.07548933  0.62321163     0.12600
N2851       N  0.82481542  0.06087384  0.66420679     0.61300
H2852       H  0.85326997  0.06199596  0.68974835     0.08700
O2853       O  0.95462669  0.06024865  0.68490902    -0.40100
O2854       O  0.94560756  0.03774591  0.70490446    -0.39300
O2855       O  0.85932846  0.08808849  0.72020528    -0.39300
O2856       O  0.86865428  0.10839587  0.69809468    -0.37000
O2857       O  0.81850555  0.04397965  0.66184418    -0.37900
O2858       O  0.81465303  0.07298899  0.67334211    -0.34100
O2859       O  0.91417703  0.06707301  0.63825636    -0.35500
O2860       O  0.90951575  0.09492596  0.65211469    -0.39800
C2861       C  0.78450267  0.33450823  0.92702645    -0.13500
C2862       C  0.76953674  0.33290168  0.91345190     0.16900
C2863       C  0.75831123  0.34943911  0.90927909     0.03200
C2864       C  0.76289832  0.36726133  0.91794355    -0.12000
C2865       C  0.77823118  0.36895249  0.93119324    -0.03000
C2866       C  0.78879339  0.35213110  0.93599337     0.02500
C2867       C  0.76635293  0.31386969  0.90372747     0.09300
N2868       N  0.74170985  0.34821610  0.89698158     0.65700
H2869       H  0.75436791  0.37983528  0.91430865     0.18600
N2870       N  0.80372175  0.35253033  0.95027305     0.76100
H2871       H  0.79305737  0.32193536  0.93064496     0.10100
C2872       C  0.76831430  0.31155850  0.88363999     0.03800
C2873       C  0.76593300  0.29333629  0.87520588    -0.04900
C2874       C  0.76271294  0.27640888  0.88620993    -0.23300
C2875       C  0.76050288  0.27904654  0.90669542     0.13000
C2876       C  0.76241102  0.29754864  0.91491963    -0.12500
N2877       N  0.77438359  0.32723476  0.87170903     0.64700
H2878       H  0.76771452  0.29221191  0.85969543     0.12600
N2879       N  0.75552636  0.26379402  0.91965059     0.61300
H2880       H  0.76068199  0.29920684  0.93040151     0.08700
O2881       O  0.82129322  0.35164295  0.94512928    -0.40100
O2882       O  0.79931401  0.35012630  0.96780402    -0.39300
O2883       O  0.72691937  0.33907948  0.90264134    -0.39300
O2884       O  0.74031939  0.35928513  0.88263392    -0.37000
O2885       O  0.76742638  0.25934239  0.93272080    -0.37900
O2886       O  0.73788787  0.25956135  0.92209332    -0.34100
O2887       O  0.79155241  0.33343500  0.87307222    -0.35500
O2888       O  0.76426685  0.33198033  0.85732851    -0.39800
C2889       C  0.00590520  0.47142126  0.77986979    -0.13500
C2890       C  0.99922732  0.48895238  0.77240202     0.16900
C2891       C  0.97965837  0.49005185  0.76619906     0.03200
C2892       C  0.96721283  0.47404320  0.76846179    -0.12000
C2893       C  0.97398499  0.45658469  0.77617038    -0.03000
C2894       C  0.99371218  0.45541535  0.78165395     0.02500
C2895       C  0.01310921  0.50565014  0.77234824     0.09300
N2896       N  0.97236340  0.50693912  0.75694609     0.65700
H2897       H  0.95219289  0.47523376  0.76401838     0.18600
N2898       N  0.00136375  0.43854555  0.79054422     0.76100
H2899       H  0.02071303  0.47026103  0.78499956     0.10100
C2900       C  0.00913522  0.52313852  0.78212642     0.03800
C2901       C  0.02399954  0.53680797  0.78475172    -0.04900
C2902       C  0.04319597  0.53326387  0.77861079    -0.23300
C2903       C  0.04690751  0.51620375  0.76805548     0.13000
C2904       C  0.03191768  0.50284851  0.76481878    -0.12500
N2905       N  0.99078245  0.52647855  0.79128415     0.64700
H2906       H  0.02075546  0.54968161  0.79302729     0.12600
N2907       N  0.06610216  0.51135990  0.76187966     0.61300
H2908       H  0.03532663  0.48955528  0.75730440     0.08700
O2909       O  0.00183568  0.43759403  0.80871331    -0.40100
O2910       O  0.01128193  0.42684971  0.78062965    -0.39300
O2911       O  0.97917572  0.51180196  0.74074063    -0.39300
O2912       O  0.95674866  0.51449187  0.76283227    -0.37000
O2913       O  0.07612919  0.49993879  0.77188248    -0.37900
O2914       O  0.07136838  0.51520048  0.74485602    -0.34100
O2915       O  0.98596880  0.51652661  0.80574747    -0.35500
O2916       O  0.98147527  0.54167676  0.78760143    -0.39800
C2917       C  0.98798057  0.38019333  0.86362637    -0.13500
C2918       C  0.97560330  0.36826538  0.87424170     0.16900
C2919       C  0.95540423  0.37033091  0.87262426     0.03200
C2920       C  0.94786112  0.38308030  0.85903222    -0.12000
C2921       C  0.96028691  0.39368622  0.84691681    -0.03000
C2922       C  0.98051469  0.39293235  0.85003383     0.02500
C2923       C  0.98432210  0.35200941  0.88445968     0.09300
N2924       N  0.94246151  0.35897324  0.88403684     0.65700
H2925       H  0.93225916  0.38371580  0.85715143     0.18600
N2926       N  0.99375432  0.40421313  0.83891821     0.76100
H2927       H  0.00358723  0.37874968  0.86505992     0.10100
C2928       C  0.98555331  0.33391126  0.87535410     0.03800
C2929       C  0.99724962  0.31961356  0.88329634    -0.04900
C2930       C  0.00817319  0.32324702  0.89998089    -0.23300
C2931       C  0.00597060  0.34105367  0.90969305     0.13000
C2932       C  0.99411971  0.35531504  0.90179246    -0.12500
N2933       N  0.97652425  0.33050446  0.85708212     0.64700
H2934       H  0.99880842  0.30609778  0.87558770     0.12600
N2935       N  0.01601337  0.34508035  0.92726580     0.61300
H2936       H  0.99320076  0.36928400  0.90875377     0.08700
O2937       O  0.00320217  0.39639272  0.82535807    -0.40100
O2938       O  0.99917317  0.42032590  0.84539597    -0.39300
O2939       O  0.93586097  0.36579392  0.89963709    -0.39300
O2940       O  0.93457917  0.34427948  0.87672841    -0.37000
O2941       O  0.03081399  0.35578795  0.92701629    -0.37900
O2942       O  0.00812276  0.34095410  0.94319439    -0.34100
O2943       O  0.98465010  0.33637160  0.84183292    -0.35500
O2944       O  0.96256588  0.31880253  0.85590603    -0.39800
C2945       C  0.92404316  0.32505267  0.77658252    -0.13500
C2946       C  0.90960896  0.32302929  0.76248940     0.16900
C2947       C  0.90396996  0.33957242  0.75198760     0.03200
C2948       C  0.91197720  0.35769886  0.75650416    -0.12000
C2949       C  0.92585017  0.35979050  0.77120478    -0.03000
C2950       C  0.93228123  0.34299093  0.78086560     0.02500
C2951       C  0.89895450  0.30423891  0.76119173     0.09300
N2952       N  0.89004065  0.33824631  0.73678040     0.65700
H2953       H  0.90689607  0.37027012  0.74879977     0.18600
N2954       N  0.94647352  0.34390806  0.79585722     0.76100
H2955       H  0.92831871  0.31274503  0.78514326     0.10100
C2956       C  0.90872722  0.28641446  0.76051087     0.03800
C2957       C  0.89848126  0.26912559  0.76317016    -0.04900
C2958       C  0.87818811  0.26874511  0.76662839    -0.23300
C2959       C  0.86826694  0.28686293  0.76498897     0.13000
C2960       C  0.87873014  0.30407396  0.76302026    -0.12500
N2961       N  0.92907444  0.28554662  0.75646222     0.64700
H2962       H  0.90672675  0.25601502  0.76169646     0.12600
N2963       N  0.84752728  0.28833006  0.76467221     0.61300
H2964       H  0.87081952  0.31753682  0.76345295     0.08700
O2965       O  0.96412235  0.34109443  0.79180066    -0.40100
O2966       O  0.94107646  0.34381019  0.81329311    -0.39300
O2967       O  0.87402250  0.34695372  0.73831177    -0.39300
O2968       O  0.89510584  0.33144287  0.72061770    -0.37000
O2969       O  0.83937037  0.29166826  0.74873272    -0.37900
O2970       O  0.83845166  0.29230843  0.78002253    -0.34100
O2971       O  0.94052725  0.27884090  0.76893768    -0.35500
O2972       O  0.93495194  0.28780577  0.73934019    -0.39800
C2973       C  0.85802899  0.42246413  0.83906520    -0.13500
C2974       C  0.85762677  0.44003821  0.84912251     0.16900
C2975       C  0.87098438  0.45455818  0.84395346     0.03200
C2976       C  0.88543933  0.45069839  0.83017876    -0.12000
C2977       C  0.88649139  0.43272600  0.82093949    -0.03000
C2978       C  0.87215962  0.41875371  0.82495754     0.02500
C2979       C  0.84573936  0.44146958  0.86705025     0.09300
N2980       N  0.87028816  0.47311564  0.85291712     0.65700
H2981       H  0.89623849  0.46162115  0.82707850     0.18600
N2982       N  0.87308248  0.39993163  0.81658308     0.76100
H2983       H  0.84832502  0.41092790  0.84324395     0.10100
C2984       C  0.82572056  0.43722464  0.86720167     0.03800
C2985       C  0.81573703  0.43567149  0.88477952    -0.04900
C2986       C  0.82538486  0.43791481  0.90247669    -0.23300
C2987       C  0.84532357  0.44277502  0.90233084     0.13000
C2988       C  0.85523014  0.44456829  0.88471875    -0.12500
N2989       N  0.81538826  0.43402759  0.84963252     0.64700
H2990       H  0.80046018  0.43194505  0.88453399     0.12600
N2991       N  0.85589815  0.44540612  0.91987584     0.61300
H2992       H  0.87069345  0.44744996  0.88490938     0.08700
O2993       O  0.86023159  0.39470230  0.80473159    -0.40100
O2994       O  0.88449667  0.38756243  0.82353496    -0.39300
O2995       O  0.88474245  0.47925581  0.86224280    -0.39300
O2996       O  0.85655488  0.48445813  0.84899467    -0.37000
O2997       O  0.86520364  0.43147063  0.92694941    -0.37900
O2998       O  0.85889084  0.46220542  0.92617353    -0.34100
O2999       O  0.81055485  0.41711447  0.84499679    -0.35500
O3000       O  0.80744312  0.44808421  0.84130386    -0.39800
C3001       C  0.97491627  0.25700500  0.01998717    -0.13500
C3002       C  0.97090019  0.26171264  0.00066311     0.16900
C3003       C  0.95168204  0.26696142  0.99584037     0.03200
C3004       C  0.93739736  0.26837271  0.01031177    -0.12000
C3005       C  0.94175806  0.26496513  0.02984593    -0.03000
C3006       C  0.96071917  0.25877401  0.03451648     0.02500
C3007       C  0.98701579  0.26172431  0.98599696     0.09300
N3008       N  0.94666352  0.27217501  0.97653839     0.65700
H3009       H  0.92301747  0.27321610  0.00628591     0.18600
N3010       N  0.96604016  0.25476458  0.05400791     0.76100
H3011       H  0.98936273  0.25232644  0.02395420     0.10100
C3012       C  0.00470437  0.27142249  0.98956075     0.03800
C3013       C  0.01939232  0.27162289  0.97548730    -0.04900
C3014       C  0.01675369  0.26304122  0.95727092    -0.23300
C3015       C  0.99922526  0.25301271  0.95379371     0.13000
C3016       C  0.98479839  0.25211961  0.96821539    -0.12500
N3017       N  0.00745048  0.28246428  0.00679973     0.64700
H3018       H  0.03248075  0.27975534  0.97845107     0.12600
N3019       N  0.99542170  0.24437091  0.93544903     0.61300
H3020       H  0.97159803  0.24417777  0.96529909     0.08700
O3021       O  0.97462235  0.26747796  0.06384502    -0.40100
O3022       O  0.96542206  0.23767140  0.06008418    -0.39300
O3023       O  0.93606065  0.26110792  0.96665790    -0.39300
O3024       O  0.94958462  0.28917094  0.97084526    -0.37000
O3025       O  0.99862535  0.22665145  0.93298421    -0.37900
O3026       O  0.98586478  0.25354866  0.92297689    -0.34100
O3027       O  0.02072389  0.27790368  0.01844048    -0.35500
O3028       O  0.99903977  0.29850850  0.00863857    -0.39800
C3029       C  0.86015577  0.36641489  0.05405169    -0.13500
C3030       C  0.86300229  0.37037874  0.03443516     0.16900
C3031       C  0.87683120  0.35983274  0.02380173     0.03200
C3032       C  0.88678495  0.34476898  0.03258428    -0.12000
C3033       C  0.88297564  0.33977287  0.05185170    -0.03000
C3034       C  0.87003303  0.35122682  0.06287111     0.02500
C3035       C  0.85004142  0.38395651  0.02454690     0.09300
N3036       N  0.87958411  0.36310824  0.00360851     0.65700
H3037       H  0.89669481  0.33624598  0.02388328     0.18600
N3038       N  0.86608932  0.34717475  0.08272063     0.76100
H3039       H  0.84961137  0.37462475  0.06231116     0.10100
C3040       C  0.83014853  0.37974867  0.02262702     0.03800
C3041       C  0.81871627  0.39093710  0.01046487    -0.04900
C3042       C  0.82695613  0.40590209  0.99960791    -0.23300
C3043       C  0.84650607  0.41108549  0.00277385     0.13000
C3044       C  0.85789136  0.40007435  0.01524751    -0.12500
N3045       N  0.82187741  0.36290119  0.03117436     0.64700
H3046       H  0.80373567  0.38672730  0.00822562     0.12600
N3047       N  0.85515353  0.42703194  0.99300014     0.61300
H3048       H  0.87312066  0.40357065  0.01701391     0.08700
O3049       O  0.85161405  0.33694397  0.08716100    -0.40100
O3050       O  0.87470554  0.35664746  0.09569268    -0.39300
O3051       O  0.89436538  0.37214772  0.99778906    -0.39300
O3052       O  0.86874228  0.35476590  0.99154615    -0.37000
O3053       O  0.85370354  0.44369523  0.00016305    -0.37900
O3054       O  0.86687222  0.42406740  0.97926315    -0.34100
O3055       O  0.80884609  0.36457397  0.04391987    -0.35500
O3056       O  0.82522331  0.34660014  0.02378441    -0.39800
C3057       C  0.97223754  0.49039844  0.25728000    -0.13500
C3058       C  0.98803489  0.49200531  0.24442917     0.16900
C3059       C  0.98956857  0.47854946  0.22917244     0.03200
C3060       C  0.97535638  0.46430713  0.22675977    -0.12000
C3061       C  0.95898349  0.46326490  0.23891744    -0.03000
C3062       C  0.95775656  0.47628932  0.25463066     0.02500
C3063       C  0.00266876  0.50785463  0.24662355     0.09300
N3064       N  0.00470803  0.48004411  0.21506187     0.65700
H3065       H  0.97663780  0.45469056  0.21447241     0.18600
N3066       N  0.94171315  0.47574494  0.26774784     0.76100
H3067       H  0.97100091  0.50029683  0.26933817     0.10100
C3068       C  0.99707040  0.52741504  0.24735910     0.03800
C3069       C  0.01121693  0.54198144  0.24674069    -0.04900
C3070       C  0.03105620  0.53755640  0.24495730    -0.23300
C3071       C  0.03674530  0.51803884  0.24573573     0.13000
C3072       C  0.02261572  0.50346345  0.24669617    -0.12500
N3073       N  0.97705124  0.53279260  0.24694760     0.64700
H3074       H  0.00648518  0.55684235  0.24605865     0.12600
N3075       N  0.05679743  0.51275937  0.24538714     0.61300
H3076       H  0.02726154  0.48856408  0.24689390     0.08700
O3077       O  0.92912171  0.48893343  0.26738930    -0.40100
O3078       O  0.94180011  0.46393193  0.28155324    -0.39300
O3079       O  0.01674228  0.46649196  0.21298576    -0.39300
O3080       O  0.00454669  0.49369656  0.20307946    -0.37000
O3081       O  0.06629819  0.51265510  0.26093529    -0.37900
O3082       O  0.06390056  0.50489442  0.23051138    -0.34100
O3083       O  0.96949323  0.54089724  0.26146882    -0.35500
O3084       O  0.96795111  0.53242038  0.23116629    -0.39800
C3085       C  0.83054707  0.40752171  0.25737329    -0.13500
C3086       C  0.82076471  0.39669132  0.24315592     0.16900
C3087       C  0.83051594  0.39277469  0.22560716     0.03200
C3088       C  0.84892341  0.40050008  0.22213128    -0.12000
C3089       C  0.85858025  0.41160944  0.23605575    -0.03000
C3090       C  0.84941965  0.41477041  0.25403828     0.02500
C3091       C  0.80028000  0.39001286  0.24616973     0.09300
N3092       N  0.82225484  0.38032385  0.21136539     0.65700
H3093       H  0.85582477  0.39757963  0.20835137     0.18600
N3094       N  0.85856147  0.42619915  0.26856749     0.76100
H3095       H  0.82332509  0.41084398  0.27088912     0.10100
C3096       C  0.79494824  0.37809818  0.26164750     0.03800
C3097       C  0.77650286  0.36947854  0.26207887    -0.04900
C3098       C  0.76215871  0.37301965  0.24777192    -0.23300
C3099       C  0.76744679  0.38636517  0.23293262     0.13000
C3100       C  0.78612717  0.39453453  0.23241797    -0.12500
N3101       N  0.80850992  0.37358541  0.27653615     0.64700
H3102       H  0.77440791  0.35887236  0.27317711     0.12600
N3103       N  0.75476172  0.39072201  0.21720540     0.61300
H3104       H  0.78982996  0.40409719  0.22063245     0.08700
O3105       O  0.86603374  0.41818309  0.28308022    -0.40100
O3106       O  0.85691145  0.44428320  0.26818751    -0.39300
O3107       O  0.81591900  0.38740723  0.19585780    -0.39300
O3108       O  0.82597364  0.36255696  0.21204095    -0.37000
O3109       O  0.74542374  0.40634566  0.21758692    -0.37900
O3110       O  0.75812326  0.38300035  0.20101408    -0.34100
O3111       O  0.80730239  0.38213346  0.29260274    -0.35500
O3112       O  0.81902306  0.35878700  0.27498756    -0.39800
C3113       C  0.91244925  0.35354649  0.17276830    -0.13500
C3114       C  0.93136134  0.34736133  0.16840241     0.16900
C3115       C  0.94723428  0.35746434  0.17643417     0.03200
C3116       C  0.94393074  0.37376469  0.18811751    -0.12000
C3117       C  0.92498791  0.38031985  0.19165626    -0.03000
C3118       C  0.90918213  0.36989057  0.18413668     0.02500
C3119       C  0.93377935  0.33245677  0.15307623     0.09300
N3120       N  0.96673396  0.35163730  0.17243223     0.65700
H3121       H  0.95618663  0.38178238  0.19372400     0.18600
N3122       N  0.88966631  0.37608676  0.18746523     0.76100
H3123       H  0.90009248  0.34631733  0.16636282     0.10100
C3124       C  0.92389877  0.31468167  0.15407432     0.03800
C3125       C  0.92166094  0.30341005  0.13741939    -0.04900
C3126       C  0.92901354  0.30952213  0.11953114    -0.23300
C3127       C  0.94047337  0.32642711  0.11892030     0.13000
C3128       C  0.94265536  0.33772335  0.13559625    -0.12500
N3129       N  0.91507236  0.30842376  0.17167556     0.64700
H3130       H  0.91303080  0.29039705  0.13831651     0.12600
N3131       N  0.94900078  0.33299922  0.10128313     0.61300
H3132       H  0.95011768  0.35140655  0.13447483     0.08700
O3133       O  0.87933919  0.36735826  0.19971309    -0.40100
O3134       O  0.88171350  0.38739470  0.17565932    -0.39300
O3135       O  0.97743548  0.36200643  0.16190920    -0.39300
O3136       O  0.97414605  0.33799071  0.18186161    -0.37000
O3137       O  0.94125769  0.34672554  0.09222706    -0.37900
O3138       O  0.96595137  0.32767269  0.09682160    -0.34100
O3139       O  0.89684514  0.30679754  0.17269682    -0.35500
O3140       O  0.92549178  0.30105580  0.18465075    -0.39800
C3141       C  0.72515378  0.29663029  0.18165851    -0.13500
C3142       C  0.74083365  0.30927881  0.17958363     0.16900
C3143       C  0.75458542  0.30569709  0.16504987     0.03200
C3144       C  0.75322858  0.28902342  0.15375253    -0.12000
C3145       C  0.73891394  0.27472146  0.15724260    -0.03000
C3146       C  0.72372703  0.27982101  0.17045438     0.02500
C3147       C  0.74335037  0.32512872  0.19378805     0.09300
N3148       N  0.77009061  0.31891970  0.16156013     0.65700
H3149       H  0.76382229  0.28751708  0.14233865     0.18600
N3150       N  0.70684211  0.26807225  0.17301056     0.76100
H3151       H  0.71414799  0.29952468  0.19250907     0.10100
C3152       C  0.72942421  0.33970850  0.19605600     0.03800
C3153       C  0.73027832  0.35213632  0.21201895    -0.04900
C3154       C  0.74450292  0.34992970  0.22657396    -0.23300
C3155       C  0.76032346  0.33725225  0.22215789     0.13000
C3156       C  0.75921803  0.32472204  0.20630626    -0.12500
N3157       N  0.71436694  0.34213104  0.18213972     0.64700
H3158       H  0.71937415  0.36326768  0.21295327     0.12600
N3159       N  0.77751536  0.33655528  0.23368289     0.61300
H3160       H  0.77054466  0.31408111  0.20421295     0.08700
O3161       O  0.69169956  0.27228774  0.16372351    -0.40100
O3162       O  0.70515767  0.25813454  0.18814883    -0.39300
O3163       O  0.78700362  0.31492963  0.16724419    -0.39300
O3164       O  0.76763451  0.33259839  0.14987833    -0.37000
O3165       O  0.77901110  0.32415330  0.24686241    -0.37900
O3166       O  0.79275186  0.34434523  0.22725801    -0.34100
O3167       O  0.69750058  0.33596096  0.18567368    -0.35500
O3168       O  0.71713963  0.35303706  0.16785723    -0.39800
C3169       C  0.82726771  0.24315093  0.10359826    -0.13500
C3170       C  0.81127621  0.25483994  0.09885776     0.16900
C3171       C  0.81413183  0.26986422  0.08542104     0.03200
C3172       C  0.83267189  0.27302981  0.07743514    -0.12000
C3173       C  0.84895009  0.26221784  0.08323902    -0.03000
C3174       C  0.84594720  0.24684495  0.09619960     0.02500
C3175       C  0.79277806  0.25282970  0.11019600     0.09300
N3176       N  0.79900094  0.28336259  0.08131355     0.65700
H3177       H  0.83458901  0.28513484  0.06778033     0.18600
N3178       N  0.86181057  0.23539247  0.10275685     0.76100
H3179       H  0.82542338  0.23159477  0.11392413     0.10100
C3180       C  0.77425984  0.25065671  0.10174071     0.03800
C3181       C  0.75742659  0.25066221  0.11343980    -0.04900
C3182       C  0.75833632  0.25291554  0.13375234    -0.23300
C3183       C  0.77739828  0.25312777  0.14204977     0.13000
C3184       C  0.79395172  0.25359747  0.13030758    -0.12500
N3185       N  0.77229168  0.24749724  0.08142345     0.64700
H3186       H  0.74364644  0.24850027  0.10636424     0.12600
N3187       N  0.78054303  0.25270936  0.16246181     0.61300
H3188       H  0.80804617  0.25474874  0.13714332     0.08700
O3189       O  0.86550187  0.21959730  0.09449055    -0.40100
O3190       O  0.86967263  0.23923755  0.11874368    -0.39300
O3191       O  0.79291092  0.29439858  0.09452187    -0.39300
O3192       O  0.79454531  0.28684795  0.06400882    -0.37000
O3193       O  0.78529943  0.26803887  0.17104385    -0.37900
O3194       O  0.78497854  0.23684068  0.17010961    -0.34100
O3195       O  0.77847157  0.23199969  0.07410312    -0.35500
O3196       O  0.76110863  0.25808595  0.07171075    -0.39800
C3197       C  0.51996300  0.26383760  0.50770295    -0.13500
C3198       C  0.50217046  0.27220966  0.50237558     0.16900
C3199       C  0.50044770  0.27967813  0.48351198     0.03200
C3200       C  0.51643966  0.27953147  0.47086355    -0.12000
C3201       C  0.53456628  0.27208495  0.47643452    -0.03000
C3202       C  0.53605759  0.26371413  0.49501479     0.02500
C3203       C  0.48669180  0.27561608  0.51736024     0.09300
N3204       N  0.48259430  0.28790562  0.47708599     0.65700
H3205       H  0.51476729  0.28595841  0.45672779     0.18600
N3206       N  0.55409761  0.25621054  0.50178397     0.76100
H3207       H  0.52172538  0.25828348  0.52219684     0.10100
C3208       C  0.47861225  0.26066950  0.52865882     0.03800
C3209       C  0.46565013  0.26500758  0.54393568    -0.04900
C3210       C  0.46013095  0.28410164  0.54802987    -0.23300
C3211       C  0.46802807  0.29896606  0.53640630     0.13000
C3212       C  0.48112886  0.29462094  0.52146743    -0.12500
N3213       N  0.48293880  0.24099086  0.52438813     0.64700
H3214       H  0.45968879  0.25335389  0.55246119     0.12600
N3215       N  0.46373071  0.31876403  0.54015799     0.61300
H3216       H  0.48754618  0.30636652  0.51340280     0.08700
O3217       O  0.55780081  0.23854862  0.49960585    -0.40100
O3218       O  0.56435492  0.26616501  0.51310824    -0.39300
O3219       O  0.48150105  0.30581818  0.47430309    -0.39300
O3220       O  0.46940641  0.27704510  0.47068108    -0.37000
O3221       O  0.47345967  0.32790397  0.55258034    -0.37900
O3222       O  0.45245377  0.32779055  0.52907657    -0.34100
O3223       O  0.49084243  0.23054239  0.53699220    -0.35500
O3224       O  0.47619451  0.23335391  0.50927330    -0.39800
C3225       C  0.63161162  0.35326442  0.48961398    -0.13500
C3226       C  0.63690925  0.34537495  0.50741492     0.16900
C3227       C  0.62849662  0.32797852  0.51349682     0.03200
C3228       C  0.61579561  0.31814148  0.50124199    -0.12000
C3229       C  0.61113694  0.32549709  0.48294411    -0.03000
C3230       C  0.61860549  0.34365122  0.47746779     0.02500
C3231       C  0.65153374  0.35537302  0.51925852     0.09300
N3232       N  0.63345224  0.31969195  0.53167921     0.65700
H3233       H  0.61011074  0.30434376  0.50584003     0.18600
N3234       N  0.61324559  0.35250138  0.45966006     0.76100
H3235       H  0.63770130  0.36692784  0.48510346     0.10100
C3236       C  0.67111135  0.35587694  0.51343977     0.03800
C3237       C  0.68464002  0.36614143  0.52437761    -0.04900
C3238       C  0.67898636  0.37597819  0.54120481    -0.23300
C3239       C  0.65927132  0.37537804  0.54706482     0.13000
C3240       C  0.64575970  0.36507760  0.53605563    -0.12500
N3241       N  0.67751359  0.34557286  0.49670354     0.64700
H3242       H  0.69969059  0.36623527  0.51975941     0.12600
N3243       N  0.65279879  0.38464559  0.56438397     0.61300
H3244       H  0.63067715  0.36473031  0.54056724     0.08700
O3245       O  0.62534624  0.35329960  0.44596375    -0.40100
O3246       O  0.59792252  0.36242567  0.45887549    -0.39300
O3247       O  0.62155034  0.32060783  0.54554354    -0.39300
O3248       O  0.64801481  0.30874635  0.53287330    -0.37000
O3249       O  0.64600757  0.40149398  0.56359336    -0.37900
O3250       O  0.65041167  0.37483856  0.57951633    -0.34100
O3251       O  0.68291391  0.35467710  0.48189104    -0.35500
O3252       O  0.68044367  0.32767385  0.49771344    -0.39800
C3253       C  0.51998026  0.50401596  0.25930737    -0.13500
C3254       C  0.50612445  0.50677402  0.27407088     0.16900
C3255       C  0.50670224  0.49448975  0.29023771     0.03200
C3256       C  0.52079017  0.47995634  0.29142527    -0.12000
C3257       C  0.53507596  0.47745463  0.27703082    -0.03000
C3258       C  0.53438288  0.48959662  0.26066538     0.02500
C3259       C  0.49096971  0.52225178  0.27255068     0.09300
N3260       N  0.49394755  0.49749939  0.30630106     0.65700
H3261       H  0.52110508  0.47120049  0.30434311     0.18600
N3262       N  0.54821661  0.48762415  0.24537520     0.76100
H3263       H  0.51963619  0.51312974  0.24664492     0.10100
C3264       C  0.49598951  0.54185424  0.27051592     0.03800
C3265       C  0.48143250  0.55609848  0.27041493    -0.04900
C3266       C  0.46170100  0.55133962  0.27274786    -0.23300
C3267       C  0.45662521  0.53165597  0.27390187     0.13000
C3268       C  0.47116886  0.51740164  0.27378262    -0.12500
N3269       N  0.51588836  0.54767619  0.27023288     0.64700
H3270       H  0.48575207  0.57109032  0.26990298     0.12600
N3271       N  0.43673640  0.52588025  0.27496587     0.61300
H3272       H  0.46696752  0.50240948  0.27486273     0.08700
O3273       O  0.56148706  0.50000055  0.24344313    -0.40100
O3274       O  0.54516144  0.47563667  0.23200108    -0.39300
O3275       O  0.48210402  0.48450337  0.31112949    -0.39300
O3276       O  0.49672558  0.51163086  0.31745079    -0.37000
O3277       O  0.42669183  0.52539197  0.25976549    -0.37900
O3278       O  0.43028529  0.51816429  0.29016128    -0.34100
O3279       O  0.52296919  0.55523014  0.25523448    -0.35500
O3280       O  0.52544030  0.54797815  0.28575123    -0.39800
C3281       C  0.66856270  0.41179446  0.27783326    -0.13500
C3282       C  0.67066628  0.40573809  0.25864194     0.16900
C3283       C  0.65460286  0.40751779  0.24612933     0.03200
C3284       C  0.63689082  0.41524265  0.25296011    -0.12000
C3285       C  0.63469741  0.42115770  0.27230439    -0.03000
C3286       C  0.65092614  0.41923658  0.28477983     0.02500
C3287       C  0.68887365  0.39536231  0.25296159     0.09300
N3288       N  0.65616400  0.40177140  0.22636764     0.65700
H3289       H  0.62482596  0.41661660  0.24306342     0.18600
N3290       N  0.64960167  0.42391377  0.30485820     0.76100
H3291       H  0.68052183  0.40996014  0.28779937     0.10100
C3292       C  0.70728992  0.40409763  0.25404881     0.03800
C3293       C  0.72429720  0.39302562  0.25186832    -0.04900
C3294       C  0.72374539  0.37294433  0.24821647    -0.23300
C3295       C  0.70478782  0.36429719  0.24764990     0.13000
C3296       C  0.68795733  0.37556796  0.24958578    -0.12500
N3297       N  0.70897352  0.42429324  0.25760229     0.64700
H3298       H  0.73795423  0.40037744  0.25386060     0.12600
N3299       N  0.70202982  0.34389721  0.24652130     0.61300
H3300       H  0.67392627  0.36849033  0.24958837     0.08700
O3301       O  0.65816913  0.43865823  0.31125180    -0.40100
O3302       O  0.64320515  0.41152192  0.31655524    -0.39300
O3303       O  0.64799562  0.38651184  0.22072451    -0.39300
O3304       O  0.66289105  0.41341028  0.21409490    -0.37000
O3305       O  0.69817447  0.33497377  0.26191595    -0.37900
O3306       O  0.69654841  0.33660214  0.23074844    -0.34100
O3307       O  0.71508048  0.43021649  0.27371739    -0.35500
O3308       O  0.70743332  0.43593557  0.24374166    -0.39800
C3309       C  0.57339995  0.33456195  0.36478303    -0.13500
C3310       C  0.56223799  0.35102225  0.36844633     0.16900
C3311       C  0.55258283  0.35284428  0.38635211     0.03200
C3312       C  0.55562410  0.33909735  0.40080557    -0.12000
C3313       C  0.56763284  0.32307307  0.39754568    -0.03000
C3314       C  0.57602865  0.32054436  0.37906599     0.02500
C3315       C  0.56368207  0.36749285  0.35493369     0.09300
N3316       N  0.53971447  0.36861403  0.39002698     0.65700
H3317       H  0.54865690  0.34104690  0.41473169     0.18600
N3318       N  0.58852013  0.30466884  0.37499058     0.76100
H3319       H  0.58100128  0.33310157  0.35112362     0.10100
C3320       C  0.57411873  0.38405750  0.36034619     0.03800
C3321       C  0.57615558  0.39926739  0.34740452    -0.04900
C3322       C  0.56856775  0.39827162  0.32861284    -0.23300
C3323       C  0.55825668  0.38155548  0.32304308     0.13000
C3324       C  0.55582755  0.36635590  0.33626576    -0.12500
N3325       N  0.58397000  0.38508469  0.37847163     0.64700
H3326       H  0.58450981  0.41168910  0.35195761     0.12600
N3327       N  0.55016837  0.37975494  0.30416288     0.61300
H3328       H  0.54798979  0.35354810  0.33189296     0.08700
O3329       O  0.60666953  0.30713481  0.37536021    -0.40100
O3330       O  0.58164126  0.29002661  0.36664261    -0.39300
O3331       O  0.52420564  0.37000251  0.38047761    -0.39300
O3332       O  0.54201964  0.37898078  0.40484021    -0.37000
O3333       O  0.55991282  0.37168549  0.29096915    -0.37900
O3334       O  0.53223781  0.38255981  0.30176567    -0.34100
O3335       O  0.59981130  0.37620719  0.38054116    -0.35500
O3336       O  0.57919850  0.39782666  0.39061239    -0.39800
C3337       C  0.72595785  0.30366825  0.32375842    -0.13500
C3338       C  0.74057964  0.30329738  0.30970494     0.16900
C3339       C  0.75495902  0.28901293  0.31075862     0.03200
C3340       C  0.75431968  0.27537669  0.32554603    -0.12000
C3341       C  0.73947444  0.27506996  0.33985625    -0.03000
C3342       C  0.72479145  0.28971443  0.33842279     0.02500
C3343       C  0.74016392  0.31756963  0.29371159     0.09300
N3344       N  0.77057010  0.28826861  0.29708889     0.65700
H3345       H  0.76575112  0.26465756  0.32587728     0.18600
N3346       N  0.70780191  0.29036987  0.35035192     0.76100
H3347       H  0.71460565  0.31442542  0.32272722     0.10100
C3348       C  0.73867776  0.31181904  0.27429294     0.03800
C3349       C  0.73946991  0.32558643  0.25964179    -0.04900
C3350       C  0.74143785  0.34557950  0.26348498    -0.23300
C3351       C  0.74036901  0.35120700  0.28334676     0.13000
C3352       C  0.74050064  0.33726557  0.29800711    -0.12500
N3353       N  0.73449721  0.29227407  0.26918168     0.64700
H3354       H  0.73726845  0.32022929  0.24518530     0.12600
N3355       N  0.73885275  0.37095909  0.28907550     0.61300
H3356       H  0.74059671  0.34191443  0.31296180     0.08700
O3357       O  0.70422618  0.30562206  0.35965294    -0.40100
O3358       O  0.69380052  0.27935480  0.34640293    -0.39300
O3359       O  0.78347347  0.30116073  0.29735814    -0.39300
O3360       O  0.77343401  0.27309844  0.28741051    -0.37000
O3361       O  0.72213203  0.37792467  0.29174097    -0.37900
O3362       O  0.75305239  0.37881889  0.29744891    -0.34100
O3363       O  0.71801638  0.28547326  0.27328674    -0.35500
O3364       O  0.74470842  0.28391992  0.25651460    -0.39800
C3365       C  0.65023737  0.25402378  0.39139296    -0.13500
C3366       C  0.66774348  0.25411801  0.40178370     0.16900
C3367       C  0.66675429  0.25657097  0.42205656     0.03200
C3368       C  0.64881737  0.26026811  0.43110802    -0.12000
C3369       C  0.63137806  0.26071505  0.42059901    -0.03000
C3370       C  0.63216519  0.25666259  0.40058867     0.02500
C3371       C  0.68675832  0.25353309  0.39101754     0.09300
N3372       N  0.68381506  0.25531632  0.43370082     0.65700
H3373       H  0.64856907  0.26311060  0.44650568     0.18600
N3374       N  0.61494983  0.25628240  0.38910482     0.76100
H3375       H  0.65056669  0.25249786  0.37583940     0.10100
C3376       C  0.69052301  0.24002293  0.37627274     0.03800
C3377       C  0.70770634  0.24108081  0.36537965    -0.04900
C3378       C  0.72158629  0.25600781  0.36781880    -0.23300
C3379       C  0.71833478  0.26859869  0.38399271     0.13000
C3380       C  0.70095730  0.26751976  0.39473829    -0.12500
N3381       N  0.67710172  0.22486333  0.37215762     0.64700
H3382       H  0.70975533  0.22976366  0.35490452     0.12600
N3383       N  0.73252088  0.28223665  0.39043515     0.61300
H3384       H  0.69850678  0.27802383  0.40606775     0.08700
O3385       O  0.60269125  0.24302680  0.39168023    -0.40100
O3386       O  0.61430233  0.26599487  0.37375877    -0.39300
O3387       O  0.68934806  0.26977652  0.44329079    -0.39300
O3388       O  0.69108413  0.23902639  0.43719559    -0.37000
O3389       O  0.74498161  0.27671213  0.40253588    -0.37900
O3390       O  0.72826619  0.29989627  0.39015462    -0.34100
O3391       O  0.66826175  0.22471625  0.35621848    -0.35500
O3392       O  0.67724105  0.20985635  0.38236745    -0.39800
C3393       C  0.98679682  0.01540786  0.25823812    -0.13500
C3394       C  0.98162423  0.99714965  0.25122156     0.16900
C3395       C  0.96269157  0.99451437  0.24393683     0.03200
C3396       C  0.94900895  0.00959865  0.24509299    -0.12000
C3397       C  0.95372910  0.02745342  0.25360847    -0.03000
C3398       C  0.97320942  0.03048001  0.25937395     0.02500
C3399       C  0.99493803  0.98056950  0.25502983     0.09300
N3400       N  0.95661759  0.97612995  0.23689742     0.65700
H3401       H  0.93423221  0.00680641  0.24055566     0.18600
N3402       N  0.97926688  0.04845421  0.26740830     0.76100
H3403       H  0.00130093  0.01770349  0.26382216     0.10100
C3404       C  0.00558339  0.97084806  0.24049593     0.03800
C3405       C  0.01836328  0.95574207  0.24547300    -0.04900
C3406       C  0.02092184  0.95013092  0.26484082    -0.23300
C3407       C  0.00999554  0.95989650  0.27925516     0.13000
C3408       C  0.99727928  0.97478997  0.27423013    -0.12500
N3409       N  0.00416254  0.97657132  0.22076101     0.64700
H3410       H  0.02653255  0.94858821  0.23414456     0.12600
N3411       N  0.01167814  0.95507080  0.29922289     0.61300
H3412       H  0.98919692  0.98207431  0.28555715     0.08700
O3413       O  0.98537093  0.06154939  0.25635691    -0.40100
O3414       O  0.98198486  0.04988812  0.28536706    -0.39300
O3415       O  0.95097281  0.96345808  0.24866493    -0.39300
O3416       O  0.95350747  0.97384507  0.21909211    -0.37000
O3417       O  0.02366984  0.96403350  0.30964908    -0.37900
O3418       O  0.99878474  0.94481286  0.30709363    -0.34100
O3419       O  0.01470093  0.99012517  0.21465855    -0.35500
O3420       O  0.99591843  0.96558751  0.20878273    -0.39800
C3421       C  0.00179796  0.20867591  0.51026358    -0.13500
C3422       C  0.99659019  0.22753647  0.50531909     0.16900
C3423       C  0.00522477  0.24290975  0.51559071     0.03200
C3424       C  0.01872912  0.23917742  0.53042546    -0.12000
C3425       C  0.02385845  0.22022019  0.53543474    -0.03000
C3426       C  0.01521443  0.20488614  0.52494953     0.02500
C3427       C  0.98121450  0.23039039  0.49028638     0.09300
N3428       N  0.00073920  0.26239750  0.51086447     0.65700
H3429       H  0.02513730  0.25119057  0.53811372     0.18600
N3430       N  0.01976709  0.18523718  0.52900410     0.76100
H3431       H  0.99505180  0.19664119  0.50289381     0.10100
C3432       C  0.98285694  0.22181324  0.47182411     0.03800
C3433       C  0.96672712  0.22097637  0.45950048    -0.04900
C3434       C  0.94865297  0.22867262  0.46498680    -0.23300
C3435       C  0.94730863  0.23836823  0.48295743     0.13000
C3436       C  0.96348817  0.23912453  0.49536547    -0.12500
N3437       N  0.00074607  0.21340692  0.46555151     0.64700
H3438       H  0.96823588  0.21365124  0.44573726     0.12600
N3439       N  0.92920689  0.24592536  0.48966517     0.61300
H3440       H  0.96176143  0.24544232  0.50958868     0.08700
O3441       O  0.03192302  0.17645140  0.51853345    -0.40100
O3442       O  0.00911341  0.17580411  0.54042678    -0.39300
O3443       O  0.98964117  0.27201270  0.52175225    -0.39300
O3444       O  0.01058949  0.27093436  0.49810309    -0.37000
O3445       O  0.91778863  0.23523574  0.49905322    -0.37900
O3446       O  0.92631969  0.26385631  0.48939177    -0.34100
O3447       O  0.00207418  0.19535823  0.46389487    -0.35500
O3448       O  0.01361730  0.22397427  0.45807569    -0.39800
C3449       C  0.87040489  0.16587709  0.51113747    -0.13500
C3450       C  0.86804974  0.14649481  0.50597393     0.16900
C3451       C  0.87163403  0.14068478  0.48681848     0.03200
C3452       C  0.87742896  0.15425746  0.47315903    -0.12000
C3453       C  0.87979059  0.17371368  0.47822548    -0.03000
C3454       C  0.87622719  0.17951403  0.49748344     0.02500
C3455       C  0.86007245  0.13295789  0.52031107     0.09300
N3456       N  0.86964378  0.12100261  0.48108663     0.65700
H3457       H  0.88024280  0.14944055  0.45851320     0.18600
N3458       N  0.87780495  0.19919734  0.50332202     0.76100
H3459       H  0.86707615  0.17057060  0.52571429     0.10100
C3460       C  0.86954740  0.12954399  0.53794896     0.03800
C3461       C  0.86071551  0.11791301  0.55184977    -0.04900
C3462       C  0.84233350  0.10982835  0.54859193    -0.23300
C3463       C  0.83304667  0.11292862  0.53074742     0.13000
C3464       C  0.84197598  0.12442772  0.51679065    -0.12500
N3465       N  0.88801209  0.13798951  0.54202184     0.64700
H3466       H  0.86801170  0.11574552  0.56551527     0.12600
N3467       N  0.81459736  0.10452094  0.52655558     0.61300
H3468       H  0.83448872  0.12714774  0.50333145     0.08700
O3469       O  0.86368710  0.21045044  0.50066143    -0.40100
O3470       O  0.89138490  0.20423051  0.51442962    -0.39300
O3471       O  0.85598361  0.11614271  0.46999447    -0.39300
O3472       O  0.88332499  0.10935553  0.48421414    -0.37000
O3473       O  0.79940396  0.11456187  0.52814035    -0.37900
O3474       O  0.81386124  0.08850070  0.51795458    -0.34100
O3475       O  0.88898293  0.15245472  0.55304417    -0.35500
O3476       O  0.90331617  0.12893589  0.53773328    -0.39800
C3477       C  0.81447934  0.24476610  0.41700330    -0.13500
C3478       C  0.81331585  0.24733816  0.39693780     0.16900
C3479       C  0.83064079  0.24632878  0.38593586     0.03200
C3480       C  0.84841017  0.24215278  0.39497012    -0.12000
C3481       C  0.84934046  0.23843176  0.41487718    -0.03000
C3482       C  0.83213097  0.24015138  0.42595819     0.02500
C3483       C  0.79404894  0.25128746  0.38775429     0.09300
N3484       N  0.83024697  0.24819901  0.36538792     0.65700
H3485       H  0.86133626  0.24062960  0.38612881     0.18600
N3486       N  0.83228315  0.23722942  0.44636980     0.76100
H3487       H  0.80154445  0.24621920  0.42582814     0.10100
C3488       C  0.77774786  0.23948855  0.39103036     0.03800
C3489       C  0.76023801  0.24314754  0.38142827    -0.04900
C3490       C  0.75841796  0.25794291  0.36747536    -0.23300
C3491       C  0.77403544  0.27173553  0.36689327     0.13000
C3492       C  0.79167619  0.26766071  0.37629412    -0.12500
N3493       N  0.77907522  0.22282373  0.40298807     0.64700
H3494       H  0.74842125  0.23305797  0.38352475     0.12600
N3495       N  0.77225647  0.29052775  0.35848739     0.61300
H3496       H  0.80354630  0.27784867  0.37523565     0.08700
O3497       O  0.83603749  0.25118257  0.45744955    -0.40100
O3498       O  0.82520467  0.22197739  0.45330606    -0.39300
O3499       O  0.83850907  0.26234626  0.35745666    -0.39300
O3500       O  0.82467338  0.23420551  0.35515119    -0.37000
O3501       O  0.75925206  0.30186919  0.36447320    -0.37900
O3502       O  0.78608098  0.29729232  0.34858255    -0.34100
O3503       O  0.77033455  0.22251869  0.41902908    -0.35500
O3504       O  0.78591042  0.20740952  0.39608856    -0.39800
C3505       C  0.91090657  0.14109363  0.32190475    -0.13500
C3506       C  0.92253741  0.13865219  0.33838728     0.16900
C3507       C  0.93414644  0.12193652  0.33968469     0.03200
C3508       C  0.93271029  0.10745310  0.32563108    -0.12000
C3509       C  0.92029616  0.10938683  0.30972782    -0.03000
C3510       C  0.90985642  0.12674628  0.30753629     0.02500
C3511       C  0.92008036  0.15181917  0.35537921     0.09300
N3512       N  0.94728399  0.11933252  0.35540414     0.65700
H3513       H  0.94114239  0.09440184  0.32737352     0.18600
N3514       N  0.89676566  0.12929589  0.29178781     0.76100
H3515       H  0.90163423  0.15362516  0.32073971     0.10100
C3516       C  0.92174231  0.17204531  0.35404654     0.03800
C3517       C  0.91800948  0.18369471  0.37032511    -0.04900
C3518       C  0.91256665  0.17560343  0.38814543    -0.23300
C3519       C  0.91098468  0.15532036  0.38940479     0.13000
C3520       C  0.91457863  0.14380160  0.37315703    -0.12500
N3521       N  0.92751106  0.18097292  0.33638153     0.64700
H3522       H  0.91934934  0.19917167  0.36896416     0.12600
N3523       N  0.90557435  0.14605353  0.40702375     0.61300
H3524       H  0.91261125  0.12838000  0.37438631     0.08700
O3525       O  0.90178700  0.13942720  0.27752783    -0.40100
O3526       O  0.87933624  0.12392527  0.29342968    -0.39300
O3527       O  0.94422926  0.10615260  0.36754437    -0.39300
O3528       O  0.96360739  0.12757111  0.35499885    -0.37000
O3529       O  0.88797917  0.14200563  0.41013427    -0.37900
O3530       O  0.91853575  0.13879043  0.41757762    -0.34100
O3531       O  0.91534629  0.19074224  0.32698416    -0.35500
O3532       O  0.94532379  0.18226006  0.33226993    -0.39800
C3533       C  0.76096180  0.18990107  0.21449816    -0.13500
C3534       C  0.74444015  0.19104060  0.20309824     0.16900
C3535       C  0.72934806  0.17786637  0.20618927     0.03200
C3536       C  0.73072362  0.16428967  0.22108959    -0.12000
C3537       C  0.74747630  0.16263566  0.23295122    -0.03000
C3538       C  0.76251951  0.17657856  0.22948035     0.02500
C3539       C  0.74293328  0.20695912  0.18895107     0.09300
N3540       N  0.71209635  0.17859751  0.19481805     0.65700
H3541       H  0.71789508  0.15578057  0.22362402     0.18600
N3542       N  0.77925382  0.17853825  0.24141509     0.76100
H3543       H  0.77268502  0.20007456  0.21220772     0.10100
C3544       C  0.74398839  0.22622493  0.19506966     0.03800
C3545       C  0.74339670  0.24109011  0.18157417    -0.04900
C3546       C  0.74136972  0.23756292  0.16151244    -0.23300
C3547       C  0.74225823  0.21781987  0.15546769     0.13000
C3548       C  0.74237803  0.20294667  0.16917702    -0.12500
N3549       N  0.74583683  0.23098785  0.21509091     0.64700
H3550       H  0.74514479  0.25544584  0.18725274     0.12600
N3551       N  0.74315851  0.21245440  0.13550440     0.61300
H3552       H  0.74266283  0.18810948  0.16429636     0.08700
O3553       O  0.77926417  0.19206385  0.25362978    -0.40100
O3554       O  0.79540975  0.17315691  0.23462579    -0.39300
O3555       O  0.70884530  0.16557814  0.18250108    -0.39300
O3556       O  0.69894529  0.19058163  0.19893717    -0.37000
O3557       O  0.75963368  0.21009915  0.12782384    -0.37900
O3558       O  0.72872207  0.20417513  0.12797448    -0.34100
O3559       O  0.76163901  0.23772398  0.22134783    -0.35500
O3560       O  0.73097296  0.23118799  0.22578775    -0.39800
C3561       C  0.76204068  0.18038543  0.29545710    -0.13500
C3562       C  0.74472063  0.19079533  0.29839144     0.16900
C3563       C  0.72895402  0.18627998  0.28608035     0.03200
C3564       C  0.73156478  0.17363213  0.27057304    -0.12000
C3565       C  0.74816465  0.16180202  0.26847997    -0.03000
C3566       C  0.76361499  0.16524476  0.28195563     0.02500
C3567       C  0.74370012  0.20709790  0.31305397     0.09300
N3568       N  0.70976177  0.19350670  0.28950039     0.65700
H3569       H  0.71957447  0.17195090  0.26062317     0.18600
N3570       N  0.78134608  0.15442893  0.28236793     0.76100
H3571       H  0.77497210  0.18405318  0.30338902     0.10100
C3572       C  0.75507093  0.20784660  0.33005496     0.03800
C3573       C  0.75468515  0.22424992  0.34197390    -0.04900
C3574       C  0.74081984  0.23923207  0.33985382    -0.23300
C3575       C  0.72871050  0.23766042  0.32311375     0.13000
C3576       C  0.73166186  0.22299118  0.30950266    -0.12500
N3577       N  0.76674134  0.19193474  0.33609813     0.64700
H3578       H  0.76540784  0.22432125  0.35310304     0.12600
N3579       N  0.71337708  0.25093227  0.31912870     0.61300
H3580       H  0.72401081  0.22425209  0.29599693     0.08700
O3581       O  0.78502984  0.14463260  0.29723501    -0.40100
O3582       O  0.79543969  0.15969503  0.27201531    -0.39300
O3583       O  0.70044609  0.20138117  0.27597860    -0.39300
O3584       O  0.70113201  0.18955424  0.30509745    -0.37000
O3585       O  0.71545012  0.26232700  0.30513644    -0.37900
O3586       O  0.69634718  0.24644130  0.32413740    -0.34100
O3587       O  0.78464602  0.19431876  0.33916790    -0.35500
O3588       O  0.75864328  0.17657834  0.34154292    -0.39800
C3589       C  0.78757727  0.10957745  0.26334187    -0.13500
C3590       C  0.80159739  0.11255109  0.24889271     0.16900
C3591       C  0.79672845  0.12439380  0.23323088     0.03200
C3592       C  0.77937056  0.13493974  0.23354867    -0.12000
C3593       C  0.76632935  0.13438308  0.24941796    -0.03000
C3594       C  0.76984339  0.11973038  0.26341203     0.02500
C3595       C  0.82091149  0.10274496  0.25000194     0.09300
N3596       N  0.80855460  0.12474093  0.21620952     0.65700
H3597       H  0.77603471  0.14309084  0.22074643     0.18600
N3598       N  0.75524092  0.11404435  0.27703873     0.76100
H3599       H  0.79042530  0.09931707  0.27474156     0.10100
C3600       C  0.83852262  0.11324877  0.25059762     0.03800
C3601       C  0.85636783  0.10350859  0.25211075    -0.04900
C3602       C  0.85711989  0.08338010  0.25368374    -0.23300
C3603       C  0.83956905  0.07289939  0.25246418     0.13000
C3604       C  0.82175233  0.08258464  0.25065568    -0.12500
N3605       N  0.83847049  0.13381757  0.25147436     0.64700
H3606       H  0.86959170  0.11185010  0.25351129     0.12600
N3607       N  0.83959613  0.05235204  0.25283092     0.61300
H3608       H  0.80845052  0.07428833  0.24985285     0.08700
O3609       O  0.74761836  0.09758795  0.27556398    -0.40100
O3610       O  0.75179806  0.12408718  0.29185700    -0.39300
O3611       O  0.80914046  0.11006265  0.20543811    -0.39300
O3612       O  0.81497389  0.14055698  0.20994700    -0.37000
O3613       O  0.83315737  0.04370179  0.26750526    -0.37900
O3614       O  0.84204757  0.04313761  0.23728213    -0.34100
O3615       O  0.83348004  0.14204992  0.26697978    -0.35500
O3616       O  0.84752615  0.14330760  0.23880990    -0.39800
C3617       C  0.48945973  0.24152795  0.97188258    -0.13500
C3618       C  0.48675095  0.23098696  0.98895987     0.16900
C3619       C  0.46927692  0.22072678  0.99144079     0.03200
C3620       C  0.45560780  0.22000936  0.97642536    -0.12000
C3621       C  0.45895387  0.22932250  0.95866192    -0.03000
C3622       C  0.47577916  0.24087966  0.95685652     0.02500
C3623       C  0.50317165  0.22912011  0.00288174     0.09300
N3624       N  0.46592203  0.20963266  0.00846537     0.65700
H3625       H  0.44283202  0.21109951  0.97831555     0.18600
N3626       N  0.47973569  0.25132122  0.93955426     0.76100
H3627       H  0.50271244  0.24970510  0.96987462     0.10100
C3628       C  0.52031209  0.21952753  0.99727740     0.03800
C3629       C  0.53571578  0.21766899  0.01024892    -0.04900
C3630       C  0.53470777  0.22528001  0.02905781    -0.23300
C3631       C  0.51766051  0.23521183  0.03467699     0.13000
C3632       C  0.50200386  0.23690537  0.02164362    -0.12500
N3633       N  0.52204303  0.21095410  0.97856692     0.64700
H3634       H  0.54856294  0.20992338  0.00555353     0.12600
N3635       N  0.51576040  0.24312502  0.05364540     0.61300
H3636       H  0.48893434  0.24436951  0.02615458     0.08700
O3637       O  0.49121656  0.24432932  0.92714685    -0.40100
O3638       O  0.47511063  0.26886609  0.93858985    -0.39300
O3639       O  0.45484899  0.21611950  0.02149665    -0.39300
O3640       O  0.47093396  0.19216618  0.00881332    -0.37000
O3641       O  0.52036807  0.26045840  0.05662043    -0.37900
O3642       O  0.50620527  0.23411711  0.06630265    -0.34100
O3643       O  0.53251799  0.21888487  0.96589994    -0.35500
O3644       O  0.51609497  0.19397686  0.97589558    -0.39800
C3645       C  0.63773534  0.16216732  0.00919747    -0.13500
C3646       C  0.65005423  0.15153549  0.02118012     0.16900
C3647       C  0.64766274  0.15239128  0.04130027     0.03200
C3648       C  0.63293880  0.16376069  0.04921058    -0.12000
C3649       C  0.62079619  0.17481656  0.03733713    -0.03000
C3650       C  0.62323090  0.17391797  0.01709941     0.02500
C3651       C  0.66609956  0.14058564  0.01244629     0.09300
N3652       N  0.66032703  0.14206249  0.05385584     0.65700
H3653       H  0.63142434  0.16439134  0.06478368     0.18600
N3654       N  0.61115267  0.18476291  0.00440071     0.76100
H3655       H  0.63966721  0.16162485  0.99366279     0.10100
C3656       C  0.66271466  0.12327365  0.00248257     0.03800
C3657       C  0.67802520  0.11416931  0.99285381    -0.04900
C3658       C  0.69673430  0.12224731  0.99275989    -0.23300
C3659       C  0.70012867  0.13949067  0.00308716     0.13000
C3660       C  0.68482929  0.14837353  0.01299028    -0.12500
N3661       N  0.64373896  0.11499512  0.00174608     0.64700
H3662       H  0.67512690  0.10093824  0.98504742     0.12600
N3663       N  0.71855700  0.14893821  0.00249754     0.61300
H3664       H  0.68737218  0.16189613  0.02041770     0.08700
O3665       O  0.61757432  0.20004264  0.99691896    -0.40100
O3666       O  0.59567617  0.17740120  0.99806251    -0.39300
O3667       O  0.67545226  0.15013897  0.06016316    -0.39300
O3668       O  0.65469116  0.12646907  0.06129715    -0.37000
O3669       O  0.72281305  0.15943476  0.98825166    -0.37900
O3670       O  0.72884209  0.14969574  0.01752293    -0.34100
O3671       O  0.63299928  0.11824469  0.98739484    -0.35500
O3672       O  0.63921260  0.10182306  0.01343103    -0.39800
C3673       C  0.66443361  0.24134427  0.08636678    -0.13500
C3674       C  0.66443844  0.24974074  0.10478101     0.16900
C3675       C  0.64650301  0.25453245  0.11346531     0.03200
C3676       C  0.62896606  0.24981969  0.10418418    -0.12000
C3677       C  0.62889828  0.24074793  0.08600540    -0.03000
C3678       C  0.64696410  0.23683648  0.07694940     0.02500
C3679       C  0.68312542  0.25127167  0.11551193     0.09300
N3680       N  0.64590914  0.26411644  0.13174713     0.65700
H3681       H  0.61533372  0.25299653  0.11137241     0.18600
N3682       N  0.64791697  0.22650706  0.05909335     0.76100
H3683       H  0.67810170  0.23732989  0.07967330     0.10100
C3684       C  0.68824073  0.23741726  0.12926730     0.03800
C3685       C  0.70595050  0.23876990  0.13903754    -0.04900
C3686       C  0.71990474  0.25332469  0.13500851    -0.23300
C3687       C  0.71393544  0.26790149  0.12165756     0.13000
C3688       C  0.69598440  0.26646703  0.11196691    -0.12500
N3689       N  0.67556087  0.22166488  0.13348361     0.64700
H3690       H  0.70800658  0.22842049  0.15038014     0.12600
N3691       N  0.72470373  0.28537444  0.11929383     0.61300
H3692       H  0.69185665  0.27761987  0.10187320     0.08700
O3693       O  0.64717883  0.20835922  0.05921073    -0.40100
O3694       O  0.65317997  0.23509717  0.04392708    -0.39300
O3695       O  0.64883235  0.28203292  0.13254006    -0.39300
O3696       O  0.63908931  0.25554977  0.14630732    -0.37000
O3697       O  0.73811978  0.28627333  0.10689527    -0.37900
O3698       O  0.71768369  0.30084343  0.12590745    -0.34100
O3699       O  0.67759132  0.20602141  0.12439283    -0.35500
O3700       O  0.66549530  0.22197130  0.14873865    -0.39800
C3701       C  0.52532077  0.99432605  0.23367676    -0.13500
C3702       C  0.50645949  0.00193468  0.23382083     0.16900
C3703       C  0.50429263  0.02217588  0.23422328     0.03200
C3704       C  0.52079209  0.03424118  0.23368852    -0.12000
C3705       C  0.53974072  0.02662855  0.23289040    -0.03000
C3706       C  0.54178774  0.00631701  0.23314325     0.02500
C3707       C  0.48954622  0.98836464  0.23204943     0.09300
N3708       N  0.48545604  0.03072727  0.23542323     0.65700
H3709       H  0.51870529  0.04969832  0.23355327     0.18600
N3710       N  0.56041963  0.99748182  0.23140825     0.76100
H3711       H  0.52729823  0.97885211  0.23317123     0.10100
C3712       C  0.47867662  0.98705163  0.21484257     0.03800
C3713       C  0.46451584  0.97259201  0.21265627    -0.04900
C3714       C  0.46090523  0.95885648  0.22718466    -0.23300
C3715       C  0.47115210  0.96078010  0.24477824     0.13000
C3716       C  0.48536674  0.97529041  0.24697893    -0.12500
N3717       N  0.48291935  0.99927603  0.19879473     0.64700
H3718       H  0.45702339  0.97152499  0.19896244     0.12600
N3719       N  0.46763933  0.94791685  0.26044255     0.61300
H3720       H  0.49350053  0.97609934  0.26032353     0.08700
O3721       O  0.56623363  0.99192814  0.21502202    -0.40100
O3722       O  0.56906630  0.99176219  0.24636299    -0.39300
O3723       O  0.47672145  0.03110769  0.25146689    -0.39300
O3724       O  0.47957030  0.04133889  0.22189334    -0.37000
O3725       O  0.47934760  0.93432355  0.26358426    -0.37900
O3726       O  0.45514139  0.95226371  0.27308823    -0.34100
O3727       O  0.49788123  0.99610823  0.18870436    -0.35500
O3728       O  0.46998070  0.01043737  0.19246122    -0.39800
C3729       C  0.66496493  0.09296157  0.25649807    -0.13500
C3730       C  0.67259089  0.10708988  0.24399911     0.16900
C3731       C  0.66145048  0.11250920  0.22784302     0.03200
C3732       C  0.64367660  0.10340946  0.22402491    -0.12000
C3733       C  0.63624800  0.08887250  0.23608026    -0.03000
C3734       C  0.64702331  0.08380034  0.25264055     0.02500
C3735       C  0.69255756  0.11532230  0.24708982     0.09300
N3736       N  0.66792442  0.12744378  0.21520329     0.65700
H3737       H  0.63562044  0.10775004  0.21134475     0.18600
N3738       N  0.64083375  0.06833704  0.26474214     0.76100
H3739       H  0.67340451  0.08836395  0.26882318     0.10100
C3740       C  0.69764530  0.12516073  0.26410937     0.03800
C3741       C  0.71601159  0.13388003  0.26581720    -0.04900
C3742       C  0.72963882  0.13423386  0.25032746    -0.23300
C3743       C  0.72527163  0.12190977  0.23435631     0.13000
C3744       C  0.70685151  0.11317518  0.23273281    -0.12500
N3745       N  0.68387525  0.12747530  0.27942202     0.64700
H3746       H  0.71909806  0.14083945  0.27941265     0.12600
N3747       N  0.73903866  0.11859528  0.21920043     0.61300
H3748       H  0.70363788  0.10469312  0.21998047     0.08700
O3749       O  0.63627260  0.07163170  0.28210119    -0.40100
O3750       O  0.64309014  0.05118496  0.25910915    -0.39300
O3751       O  0.67303599  0.12334671  0.19816485    -0.39300
O3752       O  0.66522683  0.14481617  0.21986296    -0.37000
O3753       O  0.73591325  0.12554396  0.20268257    -0.37900
O3754       O  0.75060014  0.10459222  0.22070043    -0.34100
O3755       O  0.68613864  0.11842554  0.29502254    -0.35500
O3756       O  0.67147577  0.14081678  0.27857157    -0.39800
C3757       C  0.56546506  0.13971556  0.17283979    -0.13500
C3758       C  0.55470249  0.13527989  0.15616731     0.16900
C3759       C  0.54666662  0.11661213  0.15442066     0.03200
C3760       C  0.55112017  0.10246221  0.16806908    -0.12000
C3761       C  0.56286016  0.10658569  0.18405389    -0.03000
C3762       C  0.56931862  0.12567705  0.18687911     0.02500
C3763       C  0.55512130  0.14877717  0.13935589     0.09300
N3764       N  0.53436442  0.11164592  0.13855674     0.65700
H3765       H  0.54562289  0.08799152  0.16594175     0.18600
N3766       N  0.58127786  0.13067303  0.20295532     0.76100
H3767       H  0.57214447  0.15373973  0.17437854     0.10100
C3768       C  0.55188495  0.16880675  0.14124971     0.03800
C3769       C  0.55519583  0.18107564  0.12546752    -0.04900
C3770       C  0.56144750  0.17380674  0.10754169    -0.23300
C3771       C  0.56404136  0.15370753  0.10550248     0.13000
C3772       C  0.56116278  0.14158530  0.12132769    -0.12500
N3773       N  0.54523384  0.17695045  0.15905476     0.64700
H3774       H  0.55305383  0.19642092  0.12734852     0.12600
N3775       N  0.57048696  0.14534156  0.08771389     0.61300
H3776       H  0.56448447  0.12643716  0.11961958     0.08700
O3777       O  0.57417070  0.14031968  0.21673466    -0.40100
O3778       O  0.59944184  0.12857356  0.20176058    -0.39300
O3779       O  0.53872086  0.09763406  0.12773027    -0.39300
O3780       O  0.51781459  0.11929870  0.13718070    -0.37000
O3781       O  0.58828515  0.14177324  0.08519390    -0.37900
O3782       O  0.55819202  0.13879054  0.07593264    -0.34100
O3783       O  0.55580688  0.18884105  0.16796424    -0.35500
O3784       O  0.52760569  0.17525899  0.16376434    -0.39800
C3785       C  0.77448997  0.50243826  0.99133009    -0.13500
C3786       C  0.77091490  0.49773381  0.01074748     0.16900
C3787       C  0.76581971  0.47859432  0.01529636     0.03200
C3788       C  0.76592951  0.46437141  0.00078929    -0.12000
C3789       C  0.77148972  0.46876414  0.98173805    -0.03000
C3790       C  0.77496883  0.48819857  0.97692304     0.02500
C3791       C  0.77452987  0.51255939  0.02603261     0.09300
N3792       N  0.76251241  0.47296546  0.03485449     0.65700
H3793       H  0.76339835  0.44952930  0.00486741     0.18600
N3794       N  0.77971870  0.49362665  0.95758848     0.76100
H3795       H  0.77789014  0.51716964  0.98747402     0.10100
C3796       C  0.79279077  0.52164866  0.02724585     0.03800
C3797       C  0.79599102  0.53612591  0.04094307    -0.04900
C3798       C  0.78153453  0.54164384  0.05424714    -0.23300
C3799       C  0.76323481  0.53244506  0.05321493     0.13000
C3800       C  0.75985864  0.51809950  0.03911930    -0.12500
N3801       N  0.80864476  0.51557022  0.01530130     0.64700
H3802       H  0.81032579  0.54251860  0.04164175     0.12600
N3803       N  0.74785999  0.53768369  0.06607947     0.61300
H3804       H  0.74568105  0.51139943  0.03828064     0.08700
O3805       O  0.79716086  0.49700028  0.95309953    -0.40100
O3806       O  0.76633767  0.49855690  0.94622909    -0.39300
O3807       O  0.74553452  0.46888726  0.04038624    -0.39300
O3808       O  0.77676518  0.46876057  0.04543883    -0.37000
O3809       O  0.73669644  0.55138783  0.06171652    -0.37900
O3810       O  0.74335037  0.52663009  0.07980651    -0.34100
O3811       O  0.81589570  0.52703970  0.00316040    -0.35500
O3812       O  0.81709516  0.49984203  0.01877283    -0.39800
C3813       C  0.87497013  0.53795472  0.14214200    -0.13500
C3814       C  0.87108281  0.51819532  0.14313470     0.16900
C3815       C  0.85528896  0.51047057  0.13289531     0.03200
C3816       C  0.84332110  0.52261701  0.12223662    -0.12000
C3817       C  0.84640203  0.54260052  0.12203159    -0.03000
C3818       C  0.86275770  0.55024301  0.13170750     0.02500
C3819       C  0.88184701  0.50605647  0.15679502     0.09300
N3820       N  0.85015216  0.49060529  0.13467336     0.65700
H3821       H  0.83086180  0.51642105  0.11499698     0.18600
N3822       N  0.86652734  0.57046495  0.13210679     0.76100
H3823       H  0.88701289  0.54395514  0.15019998     0.10100
C3824       C  0.89538647  0.49228669  0.15041562     0.03800
C3825       C  0.90249500  0.47862237  0.16339358    -0.04900
C3826       C  0.89639357  0.47857749  0.18280204    -0.23300
C3827       C  0.88378427  0.49327932  0.18936803     0.13000
C3828       C  0.87656099  0.50676894  0.17630549    -0.12500
N3829       N  0.90190966  0.49196561  0.13080774     0.64700
H3830       H  0.91247812  0.46774368  0.15811439     0.12600
N3831       N  0.87764122  0.49439301  0.20906321     0.61300
H3832       H  0.86615373  0.51741562  0.18126536     0.08700
O3833       O  0.87927641  0.57743738  0.12102490    -0.40100
O3834       O  0.85998428  0.58053326  0.14586067    -0.39300
O3835       O  0.84111187  0.48499813  0.14950901    -0.39300
O3836       O  0.85120031  0.47968999  0.12011323    -0.37000
O3837       O  0.88703830  0.50469904  0.22080026    -0.37900
O3838       O  0.86119404  0.48794443  0.21385805    -0.34100
O3839       O  0.91678369  0.50149455  0.12611360    -0.35500
O3840       O  0.89529329  0.47949835  0.11929610    -0.39800
C3841       C  0.77060831  0.61587956  0.17611747    -0.13500
C3842       C  0.77186292  0.60260466  0.19133438     0.16900
C3843       C  0.77591703  0.58316088  0.18692742     0.03200
C3844       C  0.77976238  0.57767677  0.16773801    -0.12000
C3845       C  0.77890192  0.59103544  0.15252435    -0.03000
C3846       C  0.77389246  0.61029039  0.15689029     0.02500
C3847       C  0.76889293  0.60970411  0.21150956     0.09300
N3848       N  0.77534222  0.56869023  0.20157635     0.65700
H3849       H  0.78326335  0.56276303  0.16469386     0.18600
N3850       N  0.77286752  0.62457222  0.14213167     0.76100
H3851       H  0.76737197  0.63084387  0.17923781     0.10100
C3852       C  0.78311856  0.60802987  0.22599772     0.03800
C3853       C  0.78044195  0.61746015  0.24380842    -0.04900
C3854       C  0.76427900  0.62949728  0.24755251    -0.23300
C3855       C  0.74856689  0.62815004  0.23398915     0.13000
C3856       C  0.75153068  0.61909627  0.21605772    -0.12500
N3857       N  0.80111284  0.59830588  0.22241049     0.64700
H3858       H  0.79206113  0.61673724  0.25413518     0.12600
N3859       N  0.72917084  0.63452351  0.23809575     0.61300
H3860       H  0.73990469  0.61913028  0.20554076     0.08700
O3861       O  0.78737514  0.63519029  0.13889105    -0.40100
O3862       O  0.75658554  0.62901006  0.13513304    -0.39300
O3863       O  0.75943822  0.56488898  0.20983007    -0.39300
O3864       O  0.78952846  0.55737836  0.20358730    -0.37000
O3865       O  0.72071335  0.64532868  0.22614622    -0.37900
O3866       O  0.71888684  0.62507019  0.24980939    -0.34100
O3867       O  0.81264206  0.60462737  0.20972098    -0.35500
O3868       O  0.80691443  0.58559958  0.23403489    -0.39800
C3869       C  0.99458933  0.74636109  0.02604979    -0.13500
C3870       C  0.01441031  0.74200188  0.02851899     0.16900
C3871       C  0.02104730  0.73835749  0.04748353     0.03200
C3872       C  0.00804285  0.73881235  0.06318455    -0.12000
C3873       C  0.98806975  0.74204522  0.06057862    -0.03000
C3874       C  0.98143569  0.74607894  0.04171172     0.02500
C3875       C  0.02797247  0.74113574  0.01136793     0.09300
N3876       N  0.04066656  0.73261920  0.05091827     0.65700
H3877       H  0.01348154  0.73525167  0.07740025     0.18600
N3878       N  0.96138119  0.74985443  0.03814613     0.76100
H3879       H  0.98917555  0.74979118  0.01180818     0.10100
C3880       C  0.02356814  0.73019168  0.99467827     0.03800
C3881       C  0.03718503  0.72853611  0.97957015    -0.04900
C3882       C  0.05546665  0.73754523  0.98046717    -0.23300
C3883       C  0.05951547  0.74926783  0.99669396     0.13000
C3884       C  0.04584137  0.75101308  0.01179926    -0.12500
N3885       N  0.00577676  0.71970256  0.99324836     0.64700
H3886       H  0.03366789  0.71941055  0.96735387     0.12600
N3887       N  0.07782630  0.75872425  0.99859290     0.61300
H3888       H  0.04939817  0.75993473  0.02414393     0.08700
O3889       O  0.95069481  0.73663467  0.03156735    -0.40100
O3890       O  0.95535667  0.76700625  0.03806695    -0.39300
O3891       O  0.05151722  0.74302435  0.06124039    -0.39300
O3892       O  0.04598336  0.71576176  0.04658540    -0.37000
O3893       O  0.07985095  0.77568511  0.99244057    -0.37900
O3894       O  0.09087351  0.75137060  0.00897947    -0.34100
O3895       O  0.99318059  0.72478711  0.98109277    -0.35500
O3896       O  0.00419378  0.70358348  0.00145346    -0.39800
C3897       C  0.98881005  0.64074064  0.12781410    -0.13500
C3898       C  0.00437965  0.64372813  0.14039867     0.16900
C3899       C  0.01144048  0.66250010  0.14338069     0.03200
C3900       C  0.00221697  0.67812810  0.13462400    -0.12000
C3901       C  0.98596314  0.67538557  0.12272965    -0.03000
C3902       C  0.97971228  0.65634126  0.11876202     0.02500
C3903       C  0.01217311  0.62750387  0.15170209     0.09300
N3904       N  0.02745576  0.66594610  0.15599233     0.65700
H3905       H  0.00741237  0.69252681  0.13773574     0.18600
N3906       N  0.96397025  0.65256791  0.10589805     0.76100
H3907       H  0.98345501  0.62627583  0.12532737     0.10100
C3908       C  0.00342565  0.62236174  0.16930865     0.03800
C3909       C  0.01258887  0.60919768  0.18145509    -0.04900
C3910       C  0.03054821  0.60098450  0.17638984    -0.23300
C3911       C  0.03840167  0.60483599  0.15787794     0.13000
C3912       C  0.02925612  0.61822396  0.14578713    -0.12500
N3913       N  0.98588938  0.63142746  0.17562488     0.64700
H3914       H  0.00614250  0.60633042  0.19545164     0.12600
N3915       N  0.05602388  0.59598872  0.15147371     0.61300
H3916       H  0.03587169  0.62191057  0.13206592     0.08700
O3917       O  0.94749369  0.64823653  0.11262159    -0.40100
O3918       O  0.96734381  0.65028061  0.08811574    -0.39300
O3919       O  0.04412198  0.66893018  0.14900056    -0.39300
O3920       O  0.02447228  0.66871484  0.17377147    -0.37000
O3921       O  0.05527234  0.58083844  0.14140464    -0.37900
O3922       O  0.07186320  0.60500748  0.15287912    -0.34100
O3923       O  0.96997421  0.62255394  0.17419498    -0.35500
O3924       O  0.98669898  0.64678021  0.18537092    -0.39800
C3925       C  0.86690218  0.69221397  0.08839336    -0.13500
C3926       C  0.86904084  0.67220288  0.08589067     0.16900
C3927       C  0.88789129  0.66421772  0.08646099     0.03200
C3928       C  0.90394681  0.67606677  0.08903946    -0.12000
C3929       C  0.90196952  0.69595139  0.09200428    -0.03000
C3930       C  0.88315296  0.70407526  0.09176339     0.02500
C3931       C  0.85194804  0.65940103  0.08275662     0.09300
N3932       N  0.89100607  0.64387406  0.08544419     0.65700
H3933       H  0.91813085  0.66932935  0.08947592     0.18600
N3934       N  0.88021440  0.72413002  0.09528107     0.76100
H3935       H  0.85260063  0.69865873  0.08785459     0.10100
C3936       C  0.83609535  0.65884818  0.09575055     0.03800
C3937       C  0.82309820  0.64330065  0.09515532    -0.04900
C3938       C  0.82598223  0.62801326  0.08216301    -0.23300
C3939       C  0.84046793  0.62966292  0.06786955     0.13000
C3940       C  0.85288468  0.64557220  0.06792878    -0.12500
N3941       N  0.83404551  0.67282283  0.11079371     0.64700
H3942       H  0.81193204  0.64226351  0.10616607     0.12600
N3943       N  0.84349931  0.61476458  0.05390857     0.61300
H3944       H  0.86434462  0.64631134  0.05719618     0.08700
O3945       O  0.87678664  0.72987238  0.11225397    -0.40100
O3946       O  0.87714054  0.73528291  0.08127489    -0.39300
O3947       O  0.90035301  0.63682072  0.07140114    -0.39300
O3948       O  0.88770643  0.63363209  0.10011156    -0.37000
O3949       O  0.83413203  0.61507347  0.03828838    -0.37900
O3950       O  0.85797429  0.60374568  0.05547251    -0.34100
O3951       O  0.82111415  0.68561306  0.10944914    -0.35500
O3952       O  0.84224890  0.67007460  0.12681363    -0.39800
C3953       C  0.72754403  0.48699909  0.47955165    -0.13500
C3954       C  0.73761084  0.49262392  0.49621057     0.16900
C3955       C  0.74575249  0.51134125  0.49676329     0.03200
C3956       C  0.74335770  0.52399563  0.48098802    -0.12000
C3957       C  0.73296226  0.51840845  0.46444248    -0.03000
C3958       C  0.72519698  0.49952203  0.46384698     0.02500
C3959       C  0.73909924  0.47850093  0.51255621     0.09300
N3960       N  0.75697558  0.51754956  0.51293416     0.65700
H3961       H  0.74947021  0.53834532  0.48180269     0.18600
N3962       N  0.71516039  0.49259846  0.44718515     0.76100
H3963       H  0.72132575  0.47268404  0.47874493     0.10100
C3964       C  0.72932955  0.48132630  0.53031743     0.03800
C3965       C  0.72864939  0.46643792  0.54410929    -0.04900
C3966       C  0.73733058  0.44837147  0.54064909    -0.23300
C3967       C  0.74779219  0.44588368  0.52318087     0.13000
C3968       C  0.74853087  0.46080156  0.50943293    -0.12500
N3969       N  0.71860254  0.49858129  0.53394761     0.64700
H3970       H  0.72037717  0.46875351  0.55724973     0.12600
N3971       N  0.75671017  0.42789452  0.51853366     0.61300
H3972       H  0.75597388  0.45827440  0.49584522     0.08700
O3973       O  0.69697191  0.49048027  0.44779471    -0.40100
O3974       O  0.72469326  0.48528703  0.43340649    -0.39300
O3975       O  0.77430915  0.51189703  0.51448282    -0.39300
O3976       O  0.75128460  0.53174792  0.52285397    -0.37000
O3977       O  0.74807467  0.41622765  0.50751279    -0.37900
O3978       O  0.77443838  0.42534850  0.52227859    -0.34100
O3979       O  0.70213113  0.50070438  0.52631640    -0.35500
O3980       O  0.72348884  0.50942187  0.54775388    -0.39800
C3981       C  0.61604068  0.50754588  0.35245004    -0.13500
C3982       C  0.63454662  0.51207336  0.34534456     0.16900
C3983       C  0.63986643  0.50643981  0.32655420     0.03200
C3984       C  0.62698844  0.49566689  0.31539038    -0.12000
C3985       C  0.60894675  0.48997278  0.32289053    -0.03000
C3986       C  0.60319911  0.49648972  0.34137954     0.02500
C3987       C  0.64906485  0.52032847  0.35849884     0.09300
N3988       N  0.65879925  0.51051178  0.31913831     0.65700
H3989       H  0.63170847  0.49062885  0.30130701     0.18600
N3990       N  0.58462520  0.49163221  0.34924781     0.76100
H3991       H  0.61191136  0.51187525  0.36694336     0.10100
C3992       C  0.64921738  0.54000136  0.36319901     0.03800
C3993       C  0.66335589  0.54716573  0.37577367    -0.04900
C3994       C  0.67740792  0.53490314  0.38379570    -0.23300
C3995       C  0.67700421  0.51508338  0.37917754     0.13000
C3996       C  0.66292299  0.50802340  0.36653847    -0.12500
N3997       N  0.63537058  0.55287565  0.35498702     0.64700
H3998       H  0.66344003  0.56241635  0.37911139     0.12600
N3999       N  0.69026060  0.50180487  0.38772765     0.61300
H4000       H  0.66264614  0.49278262  0.36312541     0.08700
O4001       O  0.56999116  0.50166552  0.34498190    -0.40100
O4002       O  0.58341559  0.47947859  0.36270588    -0.39300
O4003       O  0.67177873  0.49770454  0.31965945    -0.39300
O4004       O  0.66156591  0.52553754  0.30932219    -0.37000
O4005       O  0.68600999  0.49410246  0.40367036    -0.37900
O4006       O  0.70409298  0.49508565  0.37779687    -0.34100
O4007       O  0.62005037  0.55691069  0.36418332    -0.35500
O4008       O  0.63984108  0.56246583  0.34018006    -0.39800
C4009       C  0.75840979  0.60658228  0.35275591    -0.13500
C4010       C  0.75917826  0.59478001  0.33630505     0.16900
C4011       C  0.75631741  0.57475982  0.33860182     0.03200
C4012       C  0.75140781  0.56726668  0.35689849    -0.12000
C4013       C  0.74984470  0.57925121  0.37328334    -0.03000
C4014       C  0.75407081  0.59906084  0.37106697     0.02500
C4015       C  0.76231938  0.60411206  0.31706585     0.09300
N4016       N  0.75890400  0.56181965  0.32268201     0.65700
H4017       H  0.74851832  0.55199512  0.35821743     0.18600
N4018       N  0.75410883  0.61183764  0.38725767     0.76100
H4019       H  0.76095679  0.62191485  0.35133543     0.10100
C4020       C  0.74836117  0.60339952  0.30227319     0.03800
C4021       C  0.75062003  0.61493459  0.28577761    -0.04900
C4022       C  0.76618248  0.62805054  0.28351129    -0.23300
C4023       C  0.78171932  0.62622589  0.29718967     0.13000
C4024       C  0.77909676  0.61507273  0.31397450    -0.12500
N4025       N  0.73096172  0.59232471  0.30436824     0.64700
H4026       H  0.73915507  0.61466419  0.27531193     0.12600
N4027       N  0.80066025  0.63427090  0.29419300     0.61300
H4028       H  0.79052154  0.61470666  0.32469366     0.08700
O4029       O  0.74166686  0.62513342  0.38820927    -0.40100
O4030       O  0.76895670  0.61266352  0.39785207    -0.39300
O4031       O  0.77550104  0.56000067  0.31511069    -0.39300
O4032       O  0.74575280  0.54986144  0.31853845    -0.37000
O4033       O  0.80842879  0.64396933  0.30754319    -0.37900
O4034       O  0.81137580  0.62752275  0.28100909    -0.34100
O4035       O  0.71851766  0.59709989  0.31691539    -0.35500
O4036       O  0.72645305  0.58019036  0.29154346    -0.39800
C4037       C  0.47506086  0.74128324  0.50515516    -0.13500
C4038       C  0.49281280  0.73129647  0.50564255     0.16900
C4039       C  0.49685686  0.71976183  0.52185254     0.03200
C4040       C  0.48317562  0.71800412  0.53687919    -0.12000
C4041       C  0.46504812  0.72738852  0.53619694    -0.03000
C4042       C  0.46126790  0.73947335  0.52018394     0.02500
C4043       C  0.50648604  0.73176580  0.48872663     0.09300
N4044       N  0.51425167  0.70857534  0.52257734     0.65700
H4045       H  0.48646421  0.70845188  0.54876736     0.18600
N4046       N  0.44317217  0.74934570  0.51847439     0.76100
H4047       H  0.47169196  0.75021211  0.49281027     0.10100
C4048       C  0.50155089  0.72272500  0.47117807     0.03800
C4049       C  0.51556006  0.72040261  0.45660320    -0.04900
C4050       C  0.53454431  0.72760677  0.45861995    -0.23300
C4051       C  0.53897304  0.73836205  0.47539009     0.13000
C4052       C  0.52515682  0.73989507  0.49047674    -0.12500
N4053       N  0.48256523  0.71499465  0.46826139     0.64700
H4054       H  0.51160177  0.71252169  0.44366762     0.12600
N4055       N  0.55749093  0.74734934  0.47755972     0.61300
H4056       H  0.52907835  0.74728902  0.50369750     0.08700
O4057       O  0.43004267  0.74249832  0.50780362    -0.40100
O4058       O  0.44158004  0.76630052  0.52486867    -0.39300
O4059       O  0.52762404  0.71318558  0.53410489    -0.39300
O4060       O  0.51528436  0.69287853  0.51340862    -0.37000
O4061       O  0.56004750  0.76413407  0.47110656    -0.37900
O4062       O  0.56982094  0.74022052  0.48891342    -0.34100
O4063       O  0.47008310  0.72481077  0.45933387    -0.35500
O4064       O  0.47954162  0.69731992  0.47112579    -0.39800
C4065       C  0.48362353  0.63329407  0.35595033    -0.13500
C4066       C  0.49794759  0.64366159  0.34603254     0.16900
C4067       C  0.49886952  0.64260083  0.32576815     0.03200
C4068       C  0.48516232  0.63169892  0.31569715    -0.12000
C4069       C  0.47042944  0.62165922  0.32551203    -0.03000
C4070       C  0.46992007  0.62229993  0.34592065     0.02500
C4071       C  0.51181198  0.65552617  0.35707524     0.09300
N4072       N  0.51319874  0.65311609  0.31519639     0.65700
H4073       H  0.48585716  0.63145225  0.30006300     0.18600
N4074       N  0.45559005  0.61201106  0.35671078     0.76100
H4075       H  0.48306490  0.63378064  0.37158808     0.10100
C4076       C  0.50550656  0.67167188  0.36767299     0.03800
C4077       C  0.51887933  0.68248755  0.37822277    -0.04900
C4078       C  0.53858240  0.67730411  0.37878965    -0.23300
C4079       C  0.54485109  0.66095875  0.36827161     0.13000
C4080       C  0.53145339  0.65032112  0.35743894    -0.12500
N4081       N  0.48553681  0.67724242  0.36788694     0.64700
H4082       H  0.51366330  0.69481447  0.38634694     0.12600
N4083       N  0.56461228  0.65475548  0.36859086     0.61300
H4084       H  0.53634656  0.63773713  0.34951460     0.08700
O4085       O  0.44068841  0.62071255  0.36280382    -0.40100
O4086       O  0.45951758  0.59548862  0.36313130    -0.39300
O4087       O  0.52846836  0.64471844  0.30960695    -0.39300
O4088       O  0.50903732  0.66945957  0.30847386    -0.37000
O4089       O  0.56904305  0.63994777  0.37810936    -0.37900
O4090       O  0.57631499  0.66105974  0.35605925    -0.34100
O4091       O  0.47492631  0.67251461  0.38198829    -0.35500
O4092       O  0.47970763  0.68996730  0.35631235    -0.39800
C4093       C  0.62625793  0.63829731  0.44217392    -0.13500
C4094       C  0.64309114  0.64509550  0.45130043     0.16900
C4095       C  0.64446360  0.66500275  0.45542708     0.03200
C4096       C  0.62947961  0.67758724  0.44981446    -0.12000
C4097       C  0.61288623  0.67075598  0.44017642    -0.03000
C4098       C  0.61125079  0.65072323  0.43681028     0.02500
C4099       C  0.65977044  0.63145343  0.45355964     0.09300
N4100       N  0.66097071  0.67268504  0.46524340     0.65700
H4101       H  0.63103692  0.69284232  0.45271849     0.18600
N4102       N  0.59495844  0.64273193  0.42692467     0.76100
H4103       H  0.62508715  0.62324793  0.43820931     0.10100
C4104       C  0.65687953  0.61255252  0.46055039     0.03800
C4105       C  0.67071020  0.59820857  0.45676507    -0.04900
C4106       C  0.68798024  0.60239099  0.44683702    -0.23300
C4107       C  0.69194406  0.62171751  0.44193682     0.13000
C4108       C  0.67773783  0.63593747  0.44497271    -0.12500
N4109       N  0.63965005  0.60757053  0.47098317     0.64700
H4110       H  0.66764080  0.58354406  0.46112260     0.12600
N4111       N  0.70937655  0.62681333  0.43197721     0.61300
H4112       H  0.68026291  0.65019948  0.43922395     0.08700
O4113       O  0.58138679  0.63511999  0.43651422    -0.40100
O4114       O  0.59616677  0.63956535  0.40901706    -0.39300
O4115       O  0.67192282  0.68452840  0.45673425    -0.39300
O4116       O  0.66248730  0.67046752  0.48325191    -0.37000
O4117       O  0.70904014  0.62899915  0.41390691    -0.37900
O4118       O  0.72379366  0.63279702  0.44145460    -0.34100
O4119       O  0.62858593  0.59455289  0.46460678    -0.35500
O4120       O  0.63743985  0.61357445  0.48806351    -0.39800
C4121       C  0.70347809  0.71430803  0.28258041    -0.13500
C4122       C  0.70283050  0.70156420  0.26699918     0.16900
C4123       C  0.68932562  0.70497492  0.25217968     0.03200
C4124       C  0.67862033  0.72219376  0.25204775    -0.12000
C4125       C  0.68094620  0.73650478  0.26647165    -0.03000
C4126       C  0.69225188  0.73109238  0.28296311     0.02500
C4127       C  0.71706907  0.68541491  0.26628314     0.09300
N4128       N  0.68561540  0.69068285  0.23770818     0.65700
H4129       H  0.66811692  0.72387527  0.24066190     0.18600
N4130       N  0.69264931  0.74215448  0.30041448     0.76100
H4131       H  0.71307153  0.71137042  0.29460168     0.10100
C4132       C  0.73040570  0.68367422  0.25104528     0.03800
C4133       C  0.74486850  0.66958794  0.25165974    -0.04900
C4134       C  0.74698008  0.65662812  0.26731525    -0.23300
C4135       C  0.73389822  0.65933224  0.28329250     0.13000
C4136       C  0.71892457  0.67311257  0.28217131    -0.12500
N4137       N  0.73064410  0.69710231  0.23541558     0.64700
H4138       H  0.75441223  0.66898788  0.24008406     0.12600
N4139       N  0.73613497  0.65001322  0.30155953     0.61300
H4140       H  0.70926642  0.67493014  0.29435090     0.08700
O4141       O  0.68116078  0.73735082  0.31377638    -0.40100
O4142       O  0.70815816  0.75062664  0.30505031    -0.39300
O4143       O  0.68005380  0.67411558  0.24272083    -0.39300
O4144       O  0.68466074  0.69544065  0.22015996    -0.37000
O4145       O  0.74797546  0.65693610  0.31358511    -0.37900
O4146       O  0.72228745  0.63990699  0.30787174    -0.34100
O4147       O  0.73737546  0.71375106  0.23826958    -0.35500
O4148       O  0.72885356  0.69106000  0.21831944    -0.39800
C4149       C  0.64590975  0.76657687  0.31635500    -0.13500
C4150       C  0.63343750  0.75078030  0.31780070     0.16900
C4151       C  0.63182934  0.73837645  0.30183555     0.03200
C4152       C  0.64333330  0.74133346  0.28531891    -0.12000
C4153       C  0.65672281  0.75683075  0.28360453    -0.03000
C4154       C  0.65747105  0.76987811  0.29984356     0.02500
C4155       C  0.62260435  0.74720950  0.33624689     0.09300
N4156       N  0.61911343  0.72213827  0.30245058     0.65700
H4157       H  0.64209044  0.73098814  0.27364572     0.18600
N4158       N  0.67023212  0.78605898  0.30095236     0.76100
H4159       H  0.64708476  0.77635335  0.32852823     0.10100
C4160       C  0.63249959  0.74328993  0.35361408     0.03800
C4161       C  0.62206225  0.73904455  0.37053894    -0.04900
C4162       C  0.60164809  0.73877179  0.37079214    -0.23300
C4163       C  0.59172590  0.74386649  0.35364523     0.13000
C4164       C  0.60221880  0.74776757  0.33659048    -0.12500
N4165       N  0.65321166  0.74242252  0.35404332     0.64700
H4166       H  0.63007373  0.73519710  0.38340268     0.12600
N4167       N  0.57100899  0.74482403  0.35314725     0.61300
H4168       H  0.59438577  0.75124291  0.32351156     0.08700
O4169       O  0.68717702  0.78372423  0.30737856    -0.40100
O4170       O  0.66286742  0.80268093  0.30178381    -0.39300
O4171       O  0.60392265  0.72201781  0.29231524    -0.39300
O4172       O  0.62438093  0.70696876  0.31092869    -0.37000
O4173       O  0.56253731  0.75999570  0.35865031    -0.37900
O4174       O  0.56154453  0.73210414  0.34416273    -0.34100
O4175       O  0.66262798  0.75566730  0.36228474    -0.35500
O4176       O  0.66165905  0.72686664  0.34975120    -0.39800
C4177       C  0.82434798  0.71743656  0.25371573    -0.13500
C4178       C  0.82534662  0.70375104  0.26843169     0.16900
C4179       C  0.83980384  0.70572298  0.28263575     0.03200
C4180       C  0.85281492  0.72127944  0.28189432    -0.12000
C4181       C  0.85265216  0.73482570  0.26662556    -0.03000
C4182       C  0.83755418  0.73270682  0.25251747     0.02500
C4183       C  0.81101916  0.68764693  0.26836510     0.09300
N4184       N  0.84190533  0.69174864  0.29764011     0.65700
H4185       H  0.86283148  0.72251590  0.29369350     0.18600
N4186       N  0.83450417  0.74649361  0.23743734     0.76100
H4187       H  0.81299892  0.71632907  0.24295622     0.10100
C4188       C  0.79803118  0.68440853  0.28368479     0.03800
C4189       C  0.78434234  0.66954915  0.28233788    -0.04900
C4190       C  0.78250422  0.65746305  0.26587823    -0.23300
C4191       C  0.79506394  0.66198928  0.24985745     0.13000
C4192       C  0.80936356  0.67629806  0.25176125    -0.12500
N4193       N  0.79751446  0.69689948  0.30015538     0.64700
H4194       H  0.77465898  0.66766819  0.29437776     0.12600
N4195       N  0.79296751  0.65401531  0.23089811     0.61300
H4196       H  0.81878822  0.67926811  0.23955100     0.08700
O4197       O  0.81922391  0.75653054  0.23765530    -0.40100
O4198       O  0.84424839  0.74547119  0.22201768    -0.39300
O4199       O  0.84585217  0.67452343  0.29331990    -0.39300
O4200       O  0.84311187  0.69715279  0.31501686    -0.37000
O4201       O  0.78122530  0.66184164  0.21939088    -0.37900
O4202       O  0.80716026  0.64492027  0.22378359    -0.34100
O4203       O  0.79155212  0.71396001  0.29822450    -0.35500
O4204       O  0.79893253  0.68989680  0.31688928    -0.39800
C4205       C  0.91055365  0.76100118  0.18049855    -0.13500
C4206       C  0.91837073  0.75232032  0.19704049     0.16900
C4207       C  0.93561862  0.74157121  0.19513903     0.03200
C4208       C  0.94401448  0.73866423  0.17683069    -0.12000
C4209       C  0.93559105  0.74632498  0.16000424    -0.03000
C4210       C  0.91902303  0.75820449  0.16212204     0.02500
C4211       C  0.90679540  0.75196315  0.21534779     0.09300
N4212       N  0.94437916  0.73288810  0.21163108     0.65700
H4213       H  0.95682982  0.72967184  0.17572162     0.18600
N4214       N  0.90968354  0.76628084  0.14565748     0.76100
H4215       H  0.89720529  0.76918395  0.18170455     0.10100
C4216       C  0.90645055  0.76729340  0.22861284     0.03800
C4217       C  0.89440863  0.76639726  0.24512707    -0.04900
C4218       C  0.88132833  0.75091196  0.24843224    -0.23300
C4219       C  0.88323910  0.73467692  0.23543788     0.13000
C4220       C  0.89551632  0.73576890  0.21922462    -0.12500
N4221       N  0.91791653  0.78408998  0.22524853     0.64700
H4222       H  0.89454464  0.77847919  0.25505887     0.12600
N4223       N  0.87397344  0.71642386  0.23841779     0.61300
H4224       H  0.89632347  0.72357169  0.20944205     0.08700
O4225       O  0.91355324  0.78332506  0.14072106    -0.40100
O4226       O  0.89504777  0.75796646  0.13858494    -0.39300
O4227       O  0.94033470  0.71570251  0.21590292    -0.39300
O4228       O  0.95849375  0.74112562  0.21977309    -0.37000
O4229       O  0.86257914  0.71012886  0.22563008    -0.37900
O4230       O  0.88196005  0.70436445  0.24938603    -0.34100
O4231       O  0.93604090  0.78357229  0.22779332    -0.35500
O4232       O  0.91026475  0.79874412  0.21770433    -0.39800
C4233       C  0.81339184  0.83194544  0.28079913    -0.13500
C4234       C  0.81374105  0.82018009  0.26437161     0.16900
C4235       C  0.80013391  0.82362789  0.24976450     0.03200
C4236       C  0.78708398  0.83900829  0.25154225    -0.12000
C4237       C  0.78650251  0.85147798  0.26787281    -0.03000
C4238       C  0.79978385  0.84692279  0.28315968     0.02500
C4239       C  0.82704949  0.80321195  0.26388464     0.09300
N4240       N  0.79831639  0.81079977  0.23367952     0.65700
H4241       H  0.77686906  0.84099832  0.23997161     0.18600
N4242       N  0.79919167  0.85580194  0.30181127     0.76100
H4243       H  0.82328627  0.82879809  0.29251887     0.10100
C4244       C  0.84168963  0.80084852  0.24984656     0.03800
C4245       C  0.85366748  0.78440302  0.25008235    -0.04900
C4246       C  0.85249986  0.77039384  0.26496485    -0.23300
C4247       C  0.83694107  0.77291267  0.27868680     0.13000
C4248       C  0.82474326  0.78901847  0.27789542    -0.12500
N4249       N  0.84529351  0.81552651  0.23582836     0.64700
H4250       H  0.86375345  0.78299135  0.23828470     0.12600
N4251       N  0.83274772  0.75905759  0.29339691     0.61300
H4252       H  0.81319549  0.79043804  0.28848942     0.08700
O4253       O  0.81441705  0.86366799  0.30815584    -0.40100
O4254       O  0.78640529  0.85057674  0.31378534    -0.39300
O4255       O  0.78925717  0.79515350  0.23581981    -0.39300
O4256       O  0.80164757  0.81689885  0.21684542    -0.37000
O4257       O  0.81818510  0.74824491  0.29122349    -0.37900
O4258       O  0.83895902  0.76192810  0.31027673    -0.34100
O4259       O  0.85163205  0.83169565  0.24127708    -0.35500
O4260       O  0.84553254  0.81133023  0.21808542    -0.39800
C4261       C  0.71717501  0.78933235  0.26589467    -0.13500
C4262       C  0.70869257  0.80753669  0.26602636     0.16900
C4263       C  0.68858541  0.80905172  0.26326683     0.03200
C4264       C  0.67721048  0.79233923  0.26217492    -0.12000
C4265       C  0.68521613  0.77364181  0.26435230    -0.03000
C4266       C  0.70615345  0.77246837  0.26459012     0.02500
C4267       C  0.72165675  0.82454598  0.26760472     0.09300
N4268       N  0.67935445  0.82744713  0.26237641     0.65700
H4269       H  0.66163642  0.79407135  0.26086075     0.18600
N4270       N  0.71712492  0.75509566  0.26181671     0.76100
H4271       H  0.73287611  0.78820412  0.26606750     0.10100
C4272       C  0.73480844  0.82617837  0.28292811     0.03800
C4273       C  0.74906378  0.84039272  0.28257408    -0.04900
C4274       C  0.75114412  0.85366616  0.26719607    -0.23300
C4275       C  0.73770776  0.85159856  0.25146632     0.13000
C4276       C  0.72303536  0.83750322  0.25226461    -0.12500
N4277       N  0.73427731  0.81306265  0.29880851     0.64700
H4278       H  0.75891859  0.84089258  0.29459476     0.12600
N4279       N  0.73928342  0.86196207  0.23372194     0.61300
H4280       H  0.71350551  0.83570950  0.23996345     0.08700
O4281       O  0.73049000  0.75117517  0.27360235    -0.40100
O4282       O  0.71855936  0.74821526  0.24504499    -0.39300
O4283       O  0.67157660  0.83288566  0.24685021    -0.39300
O4284       O  0.67669739  0.83705258  0.27765194    -0.37000
O4285       O  0.75122347  0.85624630  0.22109110    -0.37900
O4286       O  0.72504778  0.87204043  0.22836924    -0.34100
O4287       O  0.74720372  0.80027008  0.30023512    -0.35500
O4288       O  0.72334429  0.81654367  0.31304890    -0.39800
C4289       C  0.53974370  0.78562390  0.02437672    -0.13500
C4290       C  0.52226714  0.77658269  0.02963050     0.16900
C4291       C  0.52093406  0.76826334  0.04818997     0.03200
C4292       C  0.53645569  0.76987733  0.06129519    -0.12000
C4293       C  0.55361653  0.77973278  0.05643244    -0.03000
C4294       C  0.55529219  0.78726876  0.03749329     0.02500
C4295       C  0.50513023  0.77741770  0.01625797     0.09300
N4296       N  0.50385039  0.75812875  0.05399867     0.65700
H4297       H  0.53472913  0.76395955  0.07565916     0.18600
N4298       N  0.57260704  0.79682727  0.03135963     0.76100
H4299       H  0.54110998  0.79201405  0.01018021     0.10100
C4300       C  0.48895861  0.78915652  0.02058003     0.03800
C4301       C  0.47324793  0.79018494  0.00770027    -0.04900
C4302       C  0.47327081  0.78025574  0.98990467    -0.23300
C4303       C  0.48950705  0.76848585  0.98556430     0.13000
C4304       C  0.50512912  0.76709270  0.99872691    -0.12500
N4305       N  0.48887843  0.80126374  0.03734104     0.64700
H4306       H  0.46123552  0.79959546  0.01137108     0.12600
N4307       N  0.49086462  0.75860252  0.96750779     0.61300
H4308       H  0.51753080  0.75819948  0.99504223     0.08700
O4309       O  0.57307921  0.81497661  0.03081813    -0.40100
O4310       O  0.58588133  0.78727418  0.02316926    -0.39300
O4311       O  0.50166926  0.74084050  0.04880864    -0.39300
O4312       O  0.49344566  0.76479545  0.06747860    -0.37000
O4313       O  0.49818553  0.76706802  0.95312342    -0.37900
O4314       O  0.48828725  0.74063050  0.96689123    -0.34100
O4315       O  0.50040914  0.81536082  0.03821655    -0.35500
O4316       O  0.47511338  0.80012089  0.04935755    -0.39800
C4317       C  0.51128636  0.83874380  0.13545937    -0.13500
C4318       C  0.51708170  0.85612744  0.14398180     0.16900
C4319       C  0.53655016  0.86201092  0.14260765     0.03200
C4320       C  0.54999932  0.85042179  0.13286773    -0.12000
C4321       C  0.54443026  0.83267293  0.12481794    -0.03000
C4322       C  0.52480144  0.82690623  0.12604092     0.02500
C4323       C  0.50295300  0.86706970  0.15566972     0.09300
N4324       N  0.54293912  0.87944583  0.15153937     0.65700
H4325       H  0.56501812  0.85504120  0.13221882     0.18600
N4326       N  0.51840197  0.80902670  0.11803163     0.76100
H4327       H  0.49630449  0.83409539  0.13662918     0.10100
C4328       C  0.48860389  0.87849875  0.14700288     0.03800
C4329       C  0.47444123  0.88738068  0.15849514    -0.04900
C4330       C  0.47421473  0.88490000  0.17864265    -0.23300
C4331       C  0.48862930  0.87328433  0.18725513     0.13000
C4332       C  0.50296445  0.86470134  0.17573556    -0.12500
N4333       N  0.48818321  0.88107219  0.12654712     0.64700
H4334       H  0.46350508  0.89616918  0.15156791     0.12600
N4335       N  0.48820193  0.86898640  0.20742084     0.61300
H4336       H  0.51373304  0.85550238  0.18239716     0.08700
O4337       O  0.51192037  0.80848612  0.10101811    -0.40100
O4338       O  0.51639069  0.79456929  0.12884527    -0.39300
O4339       O  0.55055376  0.87890811  0.16807609    -0.39300
O4340       O  0.54382216  0.89472418  0.14177304    -0.37000
O4341       O  0.47723012  0.85576927  0.21353097    -0.37900
O4342       O  0.50108971  0.87582151  0.21838156    -0.34100
O4343       O  0.47535755  0.87267058  0.11665217    -0.35500
O4344       O  0.49848181  0.89400505  0.11888523    -0.39800
C4345       C  0.62347276  0.75364722  0.17792513    -0.13500
C4346       C  0.62472616  0.76768617  0.19259295     0.16900
C4347       C  0.61763678  0.78630447  0.18872759     0.03200
C4348       C  0.60964321  0.79056616  0.17061460    -0.12000
C4349       C  0.60873214  0.77676453  0.15566334    -0.03000
C4350       C  0.61548622  0.75796652  0.15966034     0.02500
C4351       C  0.63529737  0.76343362  0.21099298     0.09300
N4352       N  0.61968531  0.80148052  0.20256967     0.65700
H4353       H  0.60474096  0.80515705  0.16806765     0.18600
N4354       N  0.61429880  0.74307600  0.14546404     0.76100
H4355       H  0.62896541  0.73928705  0.18059933     0.10100
C4356       C  0.62636656  0.76406151  0.22931060     0.03800
C4357       C  0.63759983  0.76219517  0.24622596    -0.04900
C4358       C  0.65795781  0.75860019  0.24574227    -0.23300
C4359       C  0.66658504  0.75850880  0.22683009     0.13000
C4360       C  0.65528455  0.76061525  0.21012704    -0.12500
N4361       N  0.60574765  0.76592636  0.23100391     0.64700
H4362       H  0.62991209  0.76383097  0.25971542     0.12600
N4363       N  0.68698265  0.75692057  0.22381949     0.61300
H4364       H  0.66245580  0.76069176  0.19615944     0.08700
O4365       O  0.60001232  0.73170463  0.14566747    -0.40100
O4366       O  0.62905774  0.73896488  0.13542807    -0.39300
O4367       O  0.63603252  0.80937218  0.20481154    -0.39300
O4368       O  0.60473056  0.80947155  0.20946703    -0.37000
O4369       O  0.69336940  0.74167525  0.21611669    -0.37900
O4370       O  0.69652461  0.77226447  0.22150675    -0.34100
O4371       O  0.59500479  0.75226297  0.22550896    -0.35500
O4372       O  0.59857033  0.77930366  0.24112136    -0.39800
C4373       C  0.74969387  0.02182937  0.00732867    -0.13500
C4374       C  0.76569276  0.02409518  0.01959928     0.16900
C4375       C  0.77814527  0.04002871  0.01671105     0.03200
C4376       C  0.77367741  0.05385635  0.00253214    -0.12000
C4377       C  0.75725243  0.05187776  0.99067116    -0.03000
C4378       C  0.74552182  0.03528426  0.99290018     0.02500
C4379       C  0.76811622  0.01002692  0.03574322     0.09300
N4380       N  0.79569461  0.04200404  0.02752276     0.65700
H4381       H  0.78306570  0.06626030  0.00087333     0.18600
N4382       N  0.72927885  0.03175822  0.98059727     0.76100
H4383       H  0.74009865  0.00959312  0.00916143     0.10100
C4384       C  0.76689116  0.01575195  0.05531039     0.03800
C4385       C  0.76533109  0.00179408  0.06988925    -0.04900
C4386       C  0.76432380  0.98203181  0.06546865    -0.23300
C4387       C  0.76696791  0.97630328  0.04601529     0.13000
C4388       C  0.76887130  0.99024866  0.03146141    -0.12500
N4389       N  0.76500731  0.03559600  0.06053829     0.64700
H4390       H  0.76327839  0.00660760  0.08465485     0.12600
N4391       N  0.76642034  0.95646876  0.04054494     0.61300
H4392       H  0.76989309  0.98558559  0.01654176     0.08700
O4393       O  0.71227988  0.03435118  0.98694580    -0.40100
O4394       O  0.73176536  0.02268301  0.96497170    -0.39300
O4395       O  0.80905598  0.02975099  0.02533237    -0.39300
O4396       O  0.79932285  0.05761450  0.03615669    -0.37000
O4397       O  0.75074163  0.94921376  0.03457577    -0.37900
O4398       O  0.78211305  0.94736187  0.03825078    -0.34100
O4399       O  0.74918048  0.04418603  0.05743978    -0.35500
O4400       O  0.77723956  0.04310732  0.07180492    -0.39800
C4401       C  0.65710074  0.98899728  0.12609182    -0.13500
C4402       C  0.65970882  0.99752746  0.14427163     0.16900
C4403       C  0.67817387  0.99720552  0.15290265     0.03200
C4404       C  0.69361128  0.98813257  0.14351195    -0.12000
C4405       C  0.69104747  0.97910476  0.12553903    -0.03000
C4406       C  0.67258105  0.97972445  0.11669757     0.02500
C4407       C  0.64301968  0.00598849  0.15469592     0.09300
N4408       N  0.68142973  0.00603814  0.17128214     0.65700
H4409       H  0.70761061  0.98781366  0.15060391     0.18600
N4410       N  0.66926001  0.97095715  0.09831554     0.76100
H4411       H  0.64290361  0.98915652  0.11939243     0.10100
C4412       C  0.63338301  0.02243046  0.14778900     0.03800
C4413       C  0.61929751  0.03141509  0.15929627    -0.04900
C4414       C  0.61489338  0.02440413  0.17780875    -0.23300
C4415       C  0.62354930  0.00710510  0.18405375     0.13000
C4416       C  0.63743815  0.99803347  0.17243693    -0.12500
N4417       N  0.63886797  0.03104656  0.12987646     0.64700
H4418       H  0.61279778  0.04467985  0.15425029     0.12600
N4419       N  0.61855744  0.99864215  0.20218130     0.61300
H4420       H  0.64436905  0.98501279  0.17756084     0.08700
O4421       O  0.66199842  0.95429993  0.09744655    -0.40100
O4422       O  0.67045594  0.98098331  0.08319577    -0.39300
O4423       O  0.68336942  0.99569209  0.18609878    -0.39300
O4424       O  0.68521028  0.02378609  0.17222400    -0.37000
O4425       O  0.60523124  0.98620423  0.20282424    -0.37900
O4426       O  0.63005297  0.00023836  0.21624454    -0.34100
O4427       O  0.62747093  0.03023417  0.11567165    -0.35500
O4428       O  0.65339836  0.04209419  0.12923401    -0.39800
C4429       C  0.78424130  0.89321313  0.21976499    -0.13500
C4430       C  0.76800312  0.90496756  0.21704613     0.16900
C4431       C  0.75470109  0.90697046  0.23238210     0.03200
C4432       C  0.75652629  0.89550816  0.24890350    -0.12000
C4433       C  0.77131232  0.88150829  0.25081344    -0.03000
C4434       C  0.78668327  0.88234323  0.23672876     0.02500
C4435       C  0.76378971  0.91289892  0.19747125     0.09300
N4436       N  0.73894876  0.92032716  0.23122934     0.65700
H4437       H  0.74552957  0.89689791  0.25987286     0.18600
N4438       N  0.80523860  0.87339762  0.23940541     0.76100
H4439       H  0.79512651  0.89229169  0.20847739     0.10100
C4440       C  0.77700960  0.92450784  0.18703052     0.03800
C4441       C  0.77256147  0.93039827  0.16806096    -0.04900
C4442       C  0.75500264  0.92497089  0.15924971    -0.23300
C4443       C  0.74205561  0.91304059  0.16970191     0.13000
C4444       C  0.74655968  0.90716663  0.18844723    -0.12500
N4445       N  0.79465755  0.93094948  0.19570445     0.64700
H4446       H  0.78263304  0.93965024  0.16041865     0.12600
N4447       N  0.72444172  0.90616758  0.16128226     0.61300
H4448       H  0.73663105  0.89758719  0.19587106     0.08700
O4449       O  0.81612116  0.87910701  0.25287166    -0.40100
O4450       O  0.81253948  0.86347487  0.22590568    -0.39300
O4451       O  0.72198693  0.91427568  0.22800895    -0.39300
O4452       O  0.74129935  0.93729938  0.23731751    -0.37000
O4453       O  0.72460274  0.89080552  0.15151289    -0.37900
O4454       O  0.70843002  0.91345915  0.16635493    -0.34100
O4455       O  0.81064229  0.92384851  0.19028612    -0.35500
O4456       O  0.79456876  0.94589270  0.20610798    -0.39800
C4457       C  0.68607907  0.88204114  0.06653865    -0.13500
C4458       C  0.68600184  0.86682610  0.07984902     0.16900
C4459       C  0.70102806  0.86573431  0.09359315     0.03200
C4460       C  0.71469559  0.88064255  0.09493405    -0.12000
C4461       C  0.71338894  0.89692284  0.08302941    -0.03000
C4462       C  0.69953557  0.89708346  0.06807404     0.02500
C4463       C  0.66895166  0.85369342  0.08068743     0.09300
N4464       N  0.70136335  0.85069996  0.10762421     0.65700
H4465       H  0.72517636  0.88031370  0.10656983     0.18600
N4466       N  0.69851834  0.91276199  0.05479094     0.76100
H4467       H  0.67500369  0.88272537  0.05548350     0.10100
C4468       C  0.65018568  0.86128088  0.08353111     0.03800
C4469       C  0.63431780  0.84893600  0.08538133    -0.04900
C4470       C  0.63653679  0.82882313  0.08473121    -0.23300
C4471       C  0.65521808  0.82116749  0.08103465     0.13000
C4472       C  0.67125532  0.83363168  0.07919374    -0.12500
N4473       N  0.64714605  0.88152730  0.08582837     0.64700
H4474       H  0.62021130  0.85527711  0.08820275     0.12600
N4475       N  0.65816185  0.80090657  0.07897910     0.61300
H4476       H  0.68555229  0.82763680  0.07658591     0.08700
O4477       O  0.68412103  0.92399496  0.05516081    -0.40100
O4478       O  0.71057052  0.91376738  0.04106520    -0.39300
O4479       O  0.71450055  0.83805881  0.10689295    -0.39300
O4480       O  0.69052786  0.85177849  0.12231950    -0.37000
O4481       O  0.65374543  0.79273522  0.06329679    -0.37900
O4482       O  0.66828567  0.79199996  0.09119782    -0.34100
O4483       O  0.63850393  0.89086270  0.07282918    -0.35500
O4484       O  0.65044785  0.88942027  0.10192135    -0.39800
C4485       C  0.78943776  0.00965600  0.49505591    -0.13500
C4486       C  0.78425828  0.00093075  0.51258635     0.16900
C4487       C  0.77902990  0.98122417  0.51238888     0.03200
C4488       C  0.78033346  0.97047943  0.49511264    -0.12000
C4489       C  0.78655627  0.97904757  0.47781180    -0.03000
C4490       C  0.79052191  0.99902356  0.47782963     0.02500
C4491       C  0.78557387  0.01266018  0.53075528     0.09300
N4492       N  0.77205119  0.97200079  0.52947828     0.65700
H4493       H  0.77702822  0.95523185  0.49537439     0.18600
N4494       N  0.79559166  0.00880912  0.46040080     0.76100
H4495       H  0.79318773  0.02480891  0.49481091     0.10100
C4496       C  0.79896820  0.00818326  0.54551602     0.03800
C4497       C  0.80195621  0.02116432  0.56087475    -0.04900
C4498       C  0.79226078  0.03897252  0.56176071    -0.23300
C4499       C  0.77828403  0.04305874  0.54740893     0.13000
C4500       C  0.77505335  0.02994625  0.53222064    -0.12500
N4501       N  0.81108710  0.99150072  0.54418053     0.64700
H4502       H  0.81294434  0.01781417  0.57151244     0.12600
N4503       N  0.76851595  0.06118955  0.54698250     0.61300
H4504       H  0.76488925  0.03373833  0.52093913     0.08700
O4505       O  0.81308722  0.01317486  0.45717886    -0.40100
O4506       O  0.78238675  0.01640429  0.45039268    -0.39300
O4507       O  0.75520936  0.97585770  0.53558923    -0.39300
O4508       O  0.78071900  0.95733454  0.53583451    -0.37000
O4509       O  0.77513491  0.07456869  0.53658105    -0.37900
O4510       O  0.75167174  0.06265152  0.55404938    -0.34100
O4511       O  0.82388921  0.99055255  0.53112743    -0.35500
O4512       O  0.81165387  0.97977527  0.55805355    -0.39800
C4513       C  0.86378858  0.00074568  0.33080319    -0.13500
C4514       C  0.86930617  0.00475941  0.34987074     0.16900
C4515       C  0.88476080  0.01758061  0.35329226     0.03200
C4516       C  0.89367114  0.02689480  0.33776962    -0.12000
C4517       C  0.88733116  0.02384775  0.31873507    -0.03000
C4518       C  0.87251289  0.01023032  0.31526536     0.02500
C4519       C  0.85857952  0.99559223  0.36592909     0.09300
N4520       N  0.89086758  0.02210689  0.37248446     0.65700
H4521       H  0.90509343  0.03719808  0.34077213     0.18600
N4522       N  0.86559767  0.00635778  0.29621762     0.76100
H4523       H  0.85238885  0.99037656  0.32796382     0.10100
C4524       C  0.83821423  0.99712345  0.36726114     0.03800
C4525       C  0.82828985  0.98759318  0.38195835    -0.04900
C4526       C  0.83825737  0.97655807  0.39566042    -0.23300
C4527       C  0.85871082  0.97538238  0.39463357     0.13000
C4528       C  0.86865192  0.98472960  0.37970101    -0.12500
N4529       N  0.82739493  0.00850221  0.35390866     0.64700
H4530       H  0.81260325  0.98874418  0.38248109     0.12600
N4531       N  0.86960102  0.96478875  0.40854975     0.61300
H4532       H  0.88428753  0.98328420  0.37871904     0.08700
O4533       O  0.84901819  0.01228771  0.29132661    -0.40100
O4534       O  0.87409937  0.99390155  0.28593707    -0.39300
O4535       O  0.90737278  0.01673161  0.37820528    -0.39300
O4536       O  0.88127926  0.03403819  0.38244170    -0.37000
O4537       O  0.87583608  0.94819866  0.40440539    -0.37900
O4538       O  0.87548683  0.97310636  0.42365974    -0.34100
O4539       O  0.81662319  0.00032213  0.34166986    -0.35500
O4540       O  0.82568507  0.02636531  0.35678026    -0.39800
C4541       C  0.78977014  0.89825640  0.35369488    -0.13500
C4542       C  0.77685055  0.90864793  0.34216025     0.16900
C4543       C  0.76672232  0.92430671  0.35047503     0.03200
C4544       C  0.77015228  0.92963077  0.36986577    -0.12000
C4545       C  0.78345875  0.91941971  0.38135878    -0.03000
C4546       C  0.79299656  0.90329056  0.37304491     0.02500
C4547       C  0.77333897  0.90170231  0.32203228     0.09300
N4548       N  0.75351898  0.93539416  0.33918525     0.65700
H4549       H  0.76284327  0.94217097  0.37572957     0.18600
N4550       N  0.80586843  0.89159650  0.38412081     0.76100
H4551       H  0.79720670  0.88583879  0.34769033     0.10100
C4552       C  0.78794314  0.90222219  0.30781362     0.03800
C4553       C  0.78566435  0.89193560  0.29045012    -0.04900
C4554       C  0.76923643  0.88023223  0.28681404    -0.23300
C4555       C  0.75322660  0.88252430  0.30011284     0.13000
C4556       C  0.75589446  0.89246597  0.31766321    -0.12500
N4557       N  0.80532026  0.91302190  0.31089655     0.64700
H4558       H  0.79747110  0.89221924  0.28019093     0.12600
N4559       N  0.73385912  0.87609184  0.29609992     0.61300
H4560       H  0.74414665  0.89289176  0.32811124     0.08700
O4561       O  0.82388197  0.89212393  0.38077141    -0.40100
O4562       O  0.79901462  0.87837843  0.39458143    -0.39300
O4563       O  0.73549673  0.93247784  0.34069579    -0.39300
O4564       O  0.75956428  0.95009683  0.33035772    -0.37000
O4565       O  0.72529130  0.86549681  0.30821748    -0.37900
O4566       O  0.72371549  0.88522555  0.28407680    -0.34100
O4567       O  0.82073951  0.90450214  0.31568268    -0.35500
O4568       O  0.80603097  0.93041463  0.30575022    -0.39800
C4569       C  0.01714548  0.76478444  0.48712058    -0.13500
C4570       C  0.01026381  0.76694039  0.50615253     0.16900
C4571       C  0.99008910  0.76978566  0.50893476     0.03200
C4572       C  0.97756540  0.77110739  0.49298097    -0.12000
C4573       C  0.98454034  0.76965150  0.47393356    -0.03000
C4574       C  0.00462306  0.76609542  0.47114666     0.02500
C4575       C  0.02454600  0.76866684  0.52249600     0.09300
N4576       N  0.98205405  0.77163657  0.52790632     0.65700
H4577       H  0.96227975  0.77380743  0.49557316     0.18600
N4578       N  0.01286691  0.76509415  0.45219970     0.76100
H4579       H  0.03257320  0.76317912  0.48450508     0.10100
C4580       C  0.03966265  0.75517811  0.52542924     0.03800
C4581       C  0.05399649  0.75855879  0.53954973    -0.04900
C4582       C  0.05377284  0.77528829  0.55102378    -0.23300
C4583       C  0.03829532  0.78848223  0.54845845     0.13000
C4584       C  0.02411119  0.78515330  0.53429501    -0.12500
N4585       N  0.04074909  0.73798088  0.51411438     0.64700
H4586       H  0.06567904  0.74824774  0.54115168     0.12600
N4587       N  0.03680948  0.80554229  0.55996262     0.61300
H4588       H  0.01298567  0.79594270  0.53212152     0.08700
O4589       O  0.01808719  0.74902103  0.44542229    -0.40100
O4590       O  0.01825171  0.78036001  0.44391968    -0.39300
O4591       O  0.97405444  0.78722402  0.53292222    -0.39300
O4592       O  0.97965220  0.75679705  0.53809689    -0.37000
O4593       O  0.04128087  0.82160663  0.55274060    -0.37900
O4594       O  0.02768036  0.80501918  0.57578210    -0.34100
O4595       O  0.05459779  0.73570378  0.50234665    -0.35500
O4596       O  0.03010572  0.72382891  0.51838909    -0.39800
C4597       C  0.03640871  0.86741757  0.36162452    -0.13500
C4598       C  0.01742464  0.86047954  0.36000384     0.16900
C4599       C  0.00658243  0.86427144  0.34330080     0.03200
C4600       C  0.01499490  0.87460403  0.32820608    -0.12000
C4601       C  0.03415786  0.88136126  0.32952206    -0.03000
C4602       C  0.04483730  0.87795477  0.34659267     0.02500
C4603       C  0.00908713  0.84893722  0.37566654     0.09300
N4604       N  0.98717857  0.85725970  0.34131035     0.65700
H4605       H  0.00655083  0.87708191  0.31527187     0.18600
N4606       N  0.06436060  0.88457940  0.34871649     0.76100
H4607       H  0.04472917  0.86452179  0.37455358     0.10100
C4608       C  0.01310928  0.82917598  0.37698472     0.03800
C4609       C  0.00348617  0.81807767  0.39075985    -0.04900
C4610       C  0.98958624  0.82636612  0.40312583    -0.23300
C4611       C  0.98648715  0.84649045  0.40253154     0.13000
C4612       C  0.99622965  0.85757730  0.38874568    -0.12500
N4613       N  0.02591462  0.81998115  0.36355004     0.64700
H4614       H  0.00610463  0.80269643  0.39096902     0.12600
N4615       N  0.97286159  0.85575819  0.41509338     0.61300
H4616       H  0.99329060  0.87287659  0.38782015     0.08700
O4617       O  0.07825375  0.87291858  0.34656542    -0.40100
O4618       O  0.06750007  0.90088575  0.35615235    -0.39300
O4619       O  0.97307480  0.86871453  0.34316126    -0.39300
O4620       O  0.98429509  0.84056237  0.33469539    -0.37000
O4621       O  0.97867986  0.86314045  0.43070591    -0.37900
O4622       O  0.95603914  0.85960548  0.40905490    -0.34100
O4623       O  0.04228131  0.81408693  0.36913019    -0.35500
O4624       O  0.01963365  0.81487627  0.34722171    -0.39800
C4625       C  0.92188680  0.77611011  0.34223142    -0.13500
C4626       C  0.91013304  0.75977902  0.34043310     0.16900
C4627       C  0.90869998  0.74709084  0.35630833     0.03200
C4628       C  0.91768066  0.75181559  0.37404826    -0.12000
C4629       C  0.92831517  0.76900568  0.37618650    -0.03000
C4630       C  0.93092893  0.78078539  0.35966601     0.02500
C4631       C  0.89894742  0.75725263  0.32208923     0.09300
N4632       N  0.89761800  0.72977507  0.35487357     0.65700
H4633       H  0.91575043  0.74236349  0.38631925     0.18600
N4634       N  0.94262814  0.79778027  0.36027467     0.76100
H4635       H  0.92375186  0.78563782  0.32999239     0.10100
C4636       C  0.88631289  0.77178813  0.31580955     0.03800
C4637       C  0.87787897  0.77085677  0.29745099    -0.04900
C4638       C  0.87976224  0.75451787  0.28516186    -0.23300
C4639       C  0.89404010  0.74069683  0.29111504     0.13000
C4640       C  0.90296194  0.74203432  0.30944075    -0.12500
N4641       N  0.88136053  0.78748467  0.32830358     0.64700
H4642       H  0.86931722  0.78319232  0.29345655     0.12600
N4643       N  0.90028838  0.72537423  0.27880761     0.61300
H4644       H  0.91367359  0.73138554  0.31353212     0.08700
O4645       O  0.93457404  0.81403957  0.36172876    -0.40100
O4646       O  0.96032947  0.79680618  0.35560893    -0.39300
O4647       O  0.90622848  0.71388359  0.35265445    -0.39300
O4648       O  0.87979033  0.72996244  0.35911650    -0.37000
O4649       O  0.91319878  0.72891255  0.26633376    -0.37900
O4650       O  0.89855236  0.70830567  0.28478733    -0.34100
O4651       O  0.88698193  0.80430526  0.32433930    -0.35500
O4652       O  0.86933258  0.78491849  0.34184379    -0.39800
C4653       C  0.87325378  0.83342808  0.45973759    -0.13500
C4654       C  0.87525367  0.85239009  0.45293252     0.16900
C4655       C  0.89221654  0.85746668  0.44269126     0.03200
C4656       C  0.90689971  0.84393382  0.43986607    -0.12000
C4657       C  0.90501098  0.82495554  0.44651046    -0.03000
C4658       C  0.88791734  0.81965521  0.45647031     0.02500
C4659       C  0.85998044  0.86709211  0.45665930     0.09300
N4660       N  0.89440618  0.87614399  0.43431051     0.65700
H4661       H  0.91967567  0.84822772  0.43176707     0.18600
N4662       N  0.88555593  0.80068523  0.46400532     0.76100
H4663       H  0.86041846  0.82938007  0.46784596     0.10100
C4664       C  0.84080676  0.86470963  0.44999510     0.03800
C4665       C  0.82797557  0.88036788  0.45024988    -0.04900
C4666       C  0.83403364  0.89853297  0.45682962    -0.23300
C4667       C  0.85249557  0.90035062  0.46538610     0.13000
C4668       C  0.86524959  0.88465748  0.46528303    -0.12500
N4669       N  0.83476669  0.84713776  0.44110571     0.64700
H4670       H  0.81385331  0.87871466  0.44358416     0.12600
N4671       N  0.85868821  0.91818381  0.47369368     0.61300
H4672       H  0.87969633  0.88645392  0.47117749     0.08700
O4673       O  0.87422355  0.78904906  0.45572043    -0.40100
O4674       O  0.89175018  0.79688429  0.48069169    -0.39300
O4675       O  0.90757157  0.88727439  0.44029952    -0.39300
O4676       O  0.88545384  0.88017928  0.41897681    -0.37000
O4677       O  0.85234625  0.92314759  0.49008547    -0.37900
O4678       O  0.87263779  0.92732555  0.46621990    -0.34100
O4679       O  0.82398128  0.83569381  0.45033405    -0.35500
O4680       O  0.83700229  0.84489153  0.42314797    -0.39800
loop_ 
_geom_bond_atom_site_label_1 
_geom_bond_atom_site_label_2 
_geom_bond_distance 
_geom_bond_site_symmetry_2 
_ccdc_geom_bond_type 
In1           O3   2.281       .  S
In1           O4   2.204       .  S
In1          O12   2.277       .  S
In1           O6   2.272       .  S
In1           O8   2.217       .  S
In1           O9   2.235       .  S
In1          O10   2.325       .  S
In1          O13   2.221       .  S
C2            O8   1.252       .  A
C2           O10   1.269       .  A
C2         C4629   1.499       .  S
O3           C11   1.268       .  A
O4           C11   1.260       .  A
C5           O12   1.260       .  A
C5            O6   1.257       .  A
C5         C4573   1.499       .  S
C7            O9   1.261       .  A
C7           O13   1.262       .  A
C7         C4610   1.474       .  S
C11        C4657   1.483       .  S
In14         O16   2.212       .  S
In14         O17   2.234       .  S
In14         O25   2.238       .  S
In14         O19   2.300       .  S
In14         O21   2.304       .  S
In14         O22   2.232       .  S
In14         O23   2.234       .  S
In14         O26   2.246       .  S
C15          O21   1.269       .  A
C15          O23   1.256       .  A
C15        C4545   1.499       .  S
O16          C24   1.263       .  A
O17          C24   1.263       .  A
C18          O25   1.255       .  A
C18          O19   1.267       .  A
C18        C4489   1.492       .  S
C20          O22   1.262       .  A
C20          O26   1.265       .  A
C20        C4666   1.478       .  S
C24        C4526   1.475       .  S
In27         O29   2.229       .  S
In27         O30   2.255       .  S
In27         O38   2.261       .  S
In27         O32   2.280       .  S
In27         O34   2.301       .  S
In27         O35   2.233       .  S
In27         O36   2.223       .  S
In27         O39   2.252       .  S
C28          O34   1.268       .  A
C28          O36   1.256       .  A
C28        C4442   1.493       .  S
O29          C37   1.260       .  A
O30          C37   1.260       .  A
C31          O38   1.258       .  A
C31          O32   1.259       .  A
C31        C4386   1.496       .  S
C33          O35   1.262       .  A
C33          O39   1.265       .  A
C33        C4461   1.480       .  S
C37        C4405   1.479       .  S
In40         O42   2.287       .  S
In40         O43   2.207       .  S
In40         O51   2.268       .  S
In40         O45   2.287       .  S
In40         O47   2.325       .  S
In40         O48   2.231       .  S
In40         O49   2.232       .  S
In40         O52   2.248       .  S
C41          O47   1.270       .  A
C41          O49   1.256       .  A
C41        C4349   1.504       .  S
O42          C50   1.268       .  A
O43          C50   1.260       .  A
C44          O51   1.258       .  A
C44          O45   1.265       .  A
C44        C4293   1.501       .  S
C46          O48   1.260       .  A
C46          O52   1.262       .  A
C46        C4321   1.477       .  S
C50        C4470   1.490       .  S
C53        C4237   1.585       .  S
C53        C4274   1.575       .  S
C53        C4433   1.577       .  S
C53        C4554   1.582       .  S
C54        C4181   1.567       .  S
C54        C4218   1.587       .  S
C54        C4246   1.590       .  S
C54        C4638   1.596       .  S
C55        C4125   1.571       .  S
C55        C4153   1.589       .  S
C55        C4265   1.569       .  S
C55        C4358   1.598       .  S
In56         O58   2.278       .  S
In56         O59   2.239       .  S
In56         O67   2.236       .  S
In56         O61   2.326       .  S
In56         O63   2.285       .  S
In56         O64   2.253       .  S
In56         O65   2.273       .  S
In56         O68   2.222       .  S
C57          O63   1.257       .  A
C57          O65   1.259       .  A
C57        C4162   1.498       .  S
O58          C66   1.265       .  A
O59          C66   1.259       .  A
C60          O67   1.254       .  A
C60          O61   1.266       .  A
C60        C4050   1.497       .  S
C62          O64   1.263       .  A
C62          O68   1.262       .  A
C62        C4078   1.479       .  S
C66        C4097   1.494       .  S
In69         O71   2.239       .  S
In69         O72   2.240       .  S
In69         O80   2.247       .  S
In69         O74   2.319       .  S
In69         O76   2.289       .  S
In69         O77   2.237       .  S
In69         O78   2.273       .  S
In69         O81   2.271       .  S
C70          O76   1.261       .  A
C70          O78   1.258       .  A
C70        C4013   1.499       .  S
O71          C79   1.261       .  A
O72          C79   1.261       .  A
C73          O80   1.253       .  A
C73          O74   1.266       .  A
C73        C3957   1.500       .  S
C75          O77   1.261       .  A
C75          O81   1.264       .  A
C75        C4106   1.486       .  S
C79        C3994   1.476       .  S
In82         O84   2.290       .  S
In82         O85   2.201       .  S
In82         O93   2.293       .  S
In82         O87   2.277       .  S
In82         O89   2.309       .  S
In82         O90   2.245       .  S
In82         O91   2.251       .  S
In82         O94   2.253       .  S
C83          O89   1.265       .  A
C83          O91   1.256       .  A
C83        C4209   1.500       .  S
O84          C92   1.265       .  A
O85          C92   1.259       .  A
C86          O93   1.257       .  A
C86          O87   1.258       .  A
C86        C3873   1.499       .  S
C88          O90   1.260       .  A
C88          O94   1.264       .  A
C88        C3901   1.484       .  S
C92        C3929   1.485       .  S
In95         O97   2.224       .  S
In95         O98   2.257       .  S
In95        O106   2.232       .  S
In95        O100   2.308       .  S
In95        O102   2.250       .  S
In95        O103   2.234       .  S
In95        O104   2.278       .  S
In95        O107   2.257       .  S
C96         O102   1.257       .  A
C96         O104   1.263       .  A
C96        C3845   1.490       .  S
O97         C105   1.261       .  A
O98         C105   1.262       .  A
C99         O106   1.255       .  A
C99         O100   1.263       .  A
C99        C3798   1.495       .  S
C101        O103   1.260       .  A
C101        O107   1.263       .  A
C101       C3938   1.475       .  S
C105       C3817   1.479       .  S
C108       C3854   1.577       .  S
C108       C4022   1.581       .  S
C108       C4134   1.578       .  S
C108       C4190   1.582       .  S
In109       O111   2.234       .  S
In109       O112   2.238       .  S
In109       O120   2.277       .  S
In109       O114   2.293       .  S
In109       O116   2.326       .  S
In109       O117   2.223       .  S
In109       O118   2.228       .  S
In109       O121   2.260       .  S
C110        O116   1.270       .  A
C110        O118   1.254       .  A
C110       C3733   1.499       .  S
O111        C119   1.261       .  A
O112        C119   1.262       .  A
C113        O120   1.258       .  A
C113        O114   1.261       .  A
C113       C3705   1.506       .  S
C115        O117   1.264       .  A
C115        O121   1.267       .  A
C115       C3761   1.483       .  S
C119       C4414   1.475       .  S
In122       O124   2.268       .  S
In122       O125   2.230       .  S
In122       O133   2.229       .  S
In122       O127   2.320       .  S
In122       O129   2.275       .  S
In122       O130   2.220       .  S
In122       O131   2.271       .  S
In122       O134   2.245       .  S
C123        O129   1.259       .  A
C123        O131   1.258       .  A
C123       C3677   1.493       .  S
O124        C132   1.264       .  A
O125        C132   1.258       .  A
C126        O133   1.253       .  A
C126        O127   1.264       .  A
C126       C3630   1.494       .  S
C128        O130   1.262       .  A
C128        O134   1.264       .  A
C128       C3649   1.474       .  S
C132       C3770   1.487       .  S
C135       C3537   1.586       .  S
C135       C3565   1.576       .  S
C135       C3593   1.567       .  S
C135       C3742   1.592       .  S
In136       O138   2.276       .  S
In136       O139   2.235       .  S
In136       O147   2.257       .  S
In136       O141   2.294       .  S
In136       O143   2.289       .  S
In136       O144   2.220       .  S
In136       O145   2.258       .  S
In136       O148   2.248       .  S
C137        O143   1.262       .  A
C137        O145   1.255       .  A
C137       C3481   1.492       .  S
O138        C146   1.267       .  A
O139        C146   1.260       .  A
C140        O147   1.257       .  A
C140        O141   1.262       .  A
C140       C3434   1.496       .  S
C142        O144   1.260       .  A
C142        O148   1.262       .  A
C142       C3453   1.476       .  S
C146       C3518   1.493       .  S
In149       O151   2.252       .  S
In149       O152   2.229       .  S
In149       O160   2.296       .  S
In149       O154   2.281       .  S
In149       O156   2.284       .  S
In149       O157   2.239       .  S
In149       O158   2.255       .  S
In149       O161   2.281       .  S
C150        O156   1.266       .  A
C150        O158   1.258       .  A
C150       C3602   1.491       .  S
O151        C159   1.261       .  A
O152        C159   1.259       .  A
C153        O160   1.258       .  A
C153        O154   1.256       .  A
C153       C3397   1.503       .  S
C155        O157   1.261       .  A
C155        O161   1.265       .  A
C155       C3509   1.487       .  S
C159       C4517   1.477       .  S
C162       C3341   1.572       .  S
C162       C3378   1.582       .  S
C162       C3490   1.584       .  S
C162       C3574   1.599       .  S
In163       O165   2.233       .  S
In163       O166   2.235       .  S
In163       O174   2.238       .  S
In163       O168   2.305       .  S
In163       O170   2.308       .  S
In163       O171   2.202       .  S
In163       O172   2.229       .  S
In163       O175   2.285       .  S
C164        O170   1.271       .  A
C164        O172   1.256       .  A
C164       C3285   1.503       .  S
O165        C173   1.262       .  A
O166        C173   1.260       .  A
C167        O174   1.257       .  A
C167        O168   1.266       .  A
C167       C3257   1.501       .  S
C169        O171   1.260       .  A
C169        O175   1.268       .  A
C169       C3322   1.487       .  S
C173       C3985   1.471       .  S
In176       O178   2.264       .  S
In176       O179   2.236       .  S
In176       O187   2.262       .  S
In176       O181   2.303       .  S
In176       O183   2.298       .  S
In176       O184   2.246       .  S
In176       O185   2.250       .  S
In176       O188   2.237       .  S
C177        O183   1.265       .  A
C177        O185   1.256       .  A
C177       C3369   1.495       .  S
O178        C186   1.264       .  A
O179        C186   1.263       .  A
C180        O187   1.257       .  A
C180        O181   1.261       .  A
C180       C3201   1.502       .  S
C182        O184   1.260       .  A
C182        O188   1.261       .  A
C182       C3229   1.480       .  S
C186       C3313   1.484       .  S
C189       C3145   1.575       .  S
C189       C3182   1.576       .  S
C189       C3546   1.574       .  S
C189       C3686   1.582       .  S
In190       O192   2.239       .  S
In190       O193   2.234       .  S
In190       O201   2.236       .  S
In190       O195   2.286       .  S
In190       O197   2.300       .  S
In190       O198   2.223       .  S
In190       O199   2.213       .  S
In190       O202   2.274       .  S
C191        O197   1.269       .  A
C191        O199   1.257       .  A
C191       C3089   1.487       .  S
O192        C200   1.261       .  A
O193        C200   1.261       .  A
C194        O201   1.260       .  A
C194        O195   1.266       .  A
C194       C3061   1.497       .  S
C196        O198   1.259       .  A
C196        O202   1.266       .  A
C196       C3117   1.475       .  S
C200       C3826   1.479       .  S
In203       O205   2.255       .  S
In203       O206   2.245       .  S
In203       O214   2.279       .  S
In203       O208   2.259       .  S
In203       O210   2.251       .  S
In203       O211   2.238       .  S
In203       O212   2.297       .  S
In203       O215   2.230       .  S
C204        O210   1.256       .  A
C204        O212   1.264       .  A
C204       C3173   1.498       .  S
O205        C213   1.264       .  A
O206        C213   1.259       .  A
C207        O214   1.260       .  A
C207        O208   1.258       .  A
C207       C3005   1.495       .  S
C209        O211   1.260       .  A
C209        O215   1.262       .  A
C209       C3033   1.475       .  S
C213       C3126   1.486       .  S
C216       C3098   1.581       .  S
C216       C3154   1.572       .  S
C216       C3294   1.579       .  S
C216       C3350   1.576       .  S
In217       O219   2.242       .  S
In217       O220   2.231       .  S
In217       O228   2.285       .  S
In217       O222   2.247       .  S
In217       O224   2.299       .  S
In217       O225   2.233       .  S
In217       O226   2.233       .  S
In217       O229   2.251       .  S
C218        O224   1.266       .  A
C218        O226   1.253       .  A
C218       C2949   1.496       .  S
O219        C227   1.259       .  A
O220        C227   1.257       .  A
C221        O228   1.262       .  A
C221        O222   1.257       .  A
C221       C2893   1.495       .  S
C223        O225   1.261       .  A
C223        O229   1.263       .  A
C223       C2977   1.477       .  S
C227       C2921   1.472       .  S
In230       O232   2.240       .  S
In230       O233   2.233       .  S
In230       O241   2.250       .  S
In230       O235   2.274       .  S
In230       O237   2.291       .  S
In230       O238   2.238       .  S
In230       O239   2.240       .  S
In230       O242   2.217       .  S
C231        O237   1.268       .  A
C231        O239   1.258       .  A
C231       C2865   1.497       .  S
O232        C240   1.266       .  A
O233        C240   1.262       .  A
C234        O241   1.258       .  A
C234        O235   1.262       .  A
C234       C3789   1.488       .  S
C236        O238   1.262       .  A
C236        O242   1.261       .  A
C236       C3042   1.472       .  S
C240       C2986   1.483       .  S
In243       O245   2.255       .  S
In243       O246   2.222       .  S
In243       O254   2.259       .  S
In243       O248   2.294       .  S
In243       O250   2.256       .  S
In243       O251   2.258       .  S
In243       O252   2.292       .  S
In243       O255   2.258       .  S
C244        O250   1.254       .  A
C244        O252   1.264       .  A
C244       C2818   1.494       .  S
O245        C253   1.262       .  A
O246        C253   1.259       .  A
C247        O254   1.253       .  A
C247        O248   1.259       .  A
C247       C2753   1.496   1_655  S
C249        O251   1.263       .  A
C249        O255   1.263       .  A
C249       C2837   1.489       .  S
C253       C2781   1.473       .  S
In256       O258   2.287       .  S
In256       O259   2.216       .  S
In256       O267   2.260       .  S
In256       O261   2.282       .  S
In256       O263   2.290       .  S
In256       O264   2.233       .  S
In256       O265   2.230       .  S
In256       O268   2.239       .  S
C257        O263   1.268       .  A
C257        O265   1.257       .  A
C257       C2725   1.489       .  S
O258        C266   1.268       .  A
O259        C266   1.260       .  A
C260        O267   1.260       .  A
C260        O261   1.263       .  A
C260       C4498   1.498       .  S
C262        O264   1.259       .  A
C262        O268   1.259       .  A
C262       C3462   1.471       .  S
C266       C2846   1.493       .  S
C269       C2669   1.583       .  S
C269       C2697   1.565       .  S
C269       C2809   1.586       .  S
C269       C2958   1.575       .  S
C270       C2613   1.578       .  S
C270       C2641   1.574       .  S
C270       C2678   1.592       .  S
C270       C2874   1.579       .  S
C271       C2557   1.579       .  S
C271       C2594   1.585       .  S
C271       C2706   1.582       .  S
C271       C2734   1.583       .  S
In272       O274   2.238       .  S
In272       O275   2.255       .  S
In272       O283   2.262       .  S
In272       O277   2.269       .  S
In272       O279   2.282       .  S
In272       O280   2.239       .  S
In272       O281   2.245       .  S
In272       O284   2.247       .  S
C273        O279   1.262       .  A
C273        O281   1.257       .  A
C273       C2501   1.489       .  S
O274        C282   1.260       .  A
O275        C282   1.260       .  A
C276        O283   1.259       .  A
C276        O277   1.259       .  A
C276       C2445   1.490       .  S
C278        O280   1.262       .  A
C278        O284   1.263       .  A
C278       C2529   1.481       .  S
C282       C2473   1.480       .  S
In285       O287   2.285       .  S
In285       O288   2.205       .  S
In285       O296   2.276       .  S
In285       O290   2.306       .  S
In285       O292   2.285       .  S
In285       O293   2.241       .  S
In285       O294   2.264       .  S
In285       O297   2.247       .  S
C286        O292   1.263       .  A
C286        O294   1.257       .  A
C286       C2585   1.497       .  S
O287        C295   1.268       .  A
O288        C295   1.259       .  A
C289        O296   1.256       .  A
C289        O290   1.261       .  A
C289       C3966   1.506       .  S
C291        O293   1.258       .  A
C291        O297   1.262       .  A
C291       C3238   1.478       .  S
C295       C2538   1.485       .  S
In298       O300   2.261       .  S
In298       O301   2.215       .  S
In298       O309   2.243       .  S
In298       O303   2.295       .  S
In298       O305   2.275       .  S
In298       O306   2.227       .  S
In298       O307   2.246       .  S
In298       O310   2.245       .  S
C299        O305   1.263       .  A
C299        O307   1.259       .  A
C299       C2650   1.493       .  S
O300        C308   1.267       .  A
O301        C308   1.259       .  A
C302        O309   1.254       .  A
C302        O303   1.263       .  A
C302       C4377   1.494       .  S
C304        O306   1.259       .  A
C304        O310   1.261       .  A
C304       C3658   1.475       .  S
C308       C2426   1.480       .  S
In311       O313   2.229       .  S
In311       O314   2.249       .  S
In311       O322   2.251       .  S
In311       O316   2.263       .  S
In311       O318   2.280       .  S
In311       O319   2.226       .  S
In311       O320   2.220       .  S
In311       O323   2.251       .  S
C312        O318   1.267       .  A
C312        O320   1.257       .  A
C312       C2389   1.484       .  S
O313        C321   1.261       .  A
O314        C321   1.262       .  A
C315        O322   1.259       .  A
C315        O316   1.262       .  A
C315       C2342   1.487       .  S
C317        O319   1.262       .  A
C317        O323   1.263       .  A
C317       C2417   1.478       .  S
C321       C2361   1.478       .  S
C324       C2398   1.571       .  S
C324       C2510   1.568       .  S
C324       C2566   1.586       .  S
C324       C2622   1.577       .  S
In325       O327   2.223       .  S
In325       O328   2.237       .  S
In325       O336   2.230       .  S
In325       O330   2.301       .  S
In325       O332   2.301       .  S
In325       O333   2.224       .  S
In325       O334   2.231       .  S
In325       O337   2.257       .  S
C326        O332   1.270       .  A
C326        O334   1.259       .  A
C326       C2277   1.499       .  S
O327        C335   1.261       .  A
O328        C335   1.261       .  A
C329        O336   1.257       .  A
C329        O330   1.270       .  A
C329       C3425   1.501       .  S
C331        O333   1.261       .  A
C331        O337   1.265       .  A
C331       C2305   1.472       .  S
C335       C2790   1.477       .  S
In338       O340   2.272       .  S
In338       O341   2.207       .  S
In338       O349   2.255       .  S
In338       O343   2.280       .  S
In338       O345   2.302       .  S
In338       O346   2.249       .  S
In338       O347   2.203       .  S
In338       O350   2.245       .  S
C339        O345   1.269       .  A
C339        O347   1.253       .  A
C339       C2249   1.488       .  S
O340        C348   1.268       .  A
O341        C348   1.264       .  A
C342        O349   1.258       .  A
C342        O343   1.261       .  A
C342       C2193   1.489       .  S
C344        O346   1.261       .  A
C344        O350   1.259       .  A
C344       C2221   1.481       .  S
C348       C2314   1.489       .  S
C351       C2118   1.572       .  S
C351       C2137   1.584       .  S
C351       C2174   1.591       .  S
C351       C2258   1.574       .  S
In352       O354   2.254       .  S
In352       O355   2.216       .  S
In352       O363   2.286       .  S
In352       O357   2.251       .  S
In352       O359   2.296       .  S
In352       O360   2.211       .  S
In352       O361   2.226       .  S
In352       O364   2.260       .  S
C353        O359   1.269       .  A
C353        O361   1.256       .  A
C353       C2053   1.489       .  S
O354        C362   1.262       .  A
O355        C362   1.259       .  A
C356        O363   1.263       .  A
C356        O357   1.258       .  A
C356       C3621   1.498       .  S
C358        O360   1.261       .  A
C358        O364   1.268       .  A
C358       C2081   1.486       .  S
C362       C2370   1.476       .  S
In365       O367   2.262       .  S
In365       O368   2.241       .  S
In365       O376   2.276       .  S
In365       O370   2.275       .  S
In365       O372   2.308       .  S
In365       O373   2.235       .  S
In365       O374   2.233       .  S
In365       O377   2.227       .  S
C366        O372   1.266       .  A
C366        O374   1.252       .  A
C366       C2165   1.498       .  S
O367        C375   1.265       .  A
O368        C375   1.261       .  A
C369        O376   1.262       .  A
C369        O370   1.258       .  A
C369       C1997   1.500       .  S
C371        O373   1.258       .  A
C371        O377   1.260       .  A
C371       C2025   1.470       .  S
C375       C2090   1.488       .  S
C378       C1941   1.580       .  S
C378       C1969   1.585       .  S
C378       C2062   1.577       .  S
C378       C2146   1.574       .  S
In379       O381   2.266       .  S
In379       O382   2.224       .  S
In379       O390   2.298       .  S
In379       O384   2.237       .  S
In379       O386   2.279       .  S
In379       O387   2.222       .  S
In379       O388   2.250       .  S
In379       O391   2.235       .  S
C380        O386   1.263       .  A
C380        O388   1.256       .  A
C380       C1885   1.493       .  S
O381        C389   1.266       .  A
O382        C389   1.260       .  A
C383        O390   1.268       .  A
C383        O384   1.255       .  A
C383       C1829   1.498       .  S
C385        O387   1.262       .  A
C385        O391   1.261       .  A
C385       C1857   1.475       .  S
C389       C1922   1.478       .  S
In392       O394   2.252       .  S
In392       O395   2.232       .  S
In392       O403   2.235       .  S
In392       O397   2.304       .  S
In392       O399   2.300       .  S
In392       O400   2.226       .  S
In392       O401   2.222       .  S
In392       O404   2.271       .  S
C393        O399   1.270       .  A
C393        O401   1.259       .  A
C393       C1978   1.498       .  S
O394        C402   1.264       .  A
O395        C402   1.261       .  A
C396        O403   1.256       .  A
C396        O397   1.267       .  A
C396       C3210   1.500       .  S
C398        O400   1.260       .  A
C398        O404   1.264       .  A
C398       C1913   1.484       .  S
C402       C2482   1.481       .  S
C405       C1773   1.594       .  S
C405       C1801   1.570       .  S
C405       C2109   1.582       .  S
C405       C2286   1.589       .  S
In406       O408   2.231       .  S
In406       O409   2.230       .  S
In406       O417   2.247       .  S
In406       O411   2.275       .  S
In406       O413   2.301       .  S
In406       O414   2.203       .  S
In406       O415   2.223       .  S
In406       O418   2.279       .  S
C407        O413   1.268       .  A
C407        O415   1.256       .  A
C407       C1810   1.496       .  S
O408        C416   1.262       .  A
O409        C416   1.260       .  A
C410        O417   1.258       .  A
C410        O411   1.261       .  A
C410       C3014   1.494       .  S
C412        O414   1.259       .  A
C412        O418   1.267       .  A
C412       C1754   1.486       .  S
C416       C2930   1.473       .  S
In419       O421   2.258       .  S
In419       O422   2.220       .  S
In419       O430   2.270       .  S
In419       O424   2.270       .  S
In419       O426   2.299       .  S
In419       O427   2.244       .  S
In419       O428   2.237       .  S
In419       O431   2.239       .  S
C420        O426   1.267       .  A
C420        O428   1.257       .  A
C420       C1726   1.496       .  S
O421        C429   1.264       .  A
O422        C429   1.261       .  A
C423        O430   1.258       .  A
C423        O424   1.260       .  A
C423       C1661   1.495       .  S
C425        O427   1.259       .  A
C425        O431   1.261       .  A
C425       C1698   1.478       .  S
C429       C1745   1.477       .  S
C432       C1717   1.577       .  S
C432       C1782   1.574       .  S
C432       C1894   1.591       .  S
C432       C1950   1.587       .  S
In433       O435   2.232       .  S
In433       O436   2.241       .  S
In433       O444   2.237       .  S
In433       O438   2.302       .  S
In433       O440   2.243       .  S
In433       O441   2.209       .  S
In433       O442   2.276       .  S
In433       O445   2.272       .  S
C434        O440   1.257       .  A
C434        O442   1.262       .  A
C434       C1605   1.490       .  S
O435        C443   1.261       .  A
O436        C443   1.259       .  A
C437        O444   1.255       .  A
C437        O438   1.263       .  A
C437       C1670   1.497       .  S
C439        O441   1.261       .  A
C439        O445   1.267       .  A
C439       C1633   1.485       .  S
C443       C1586   1.475       .  S
In446       O448   2.250       .  S
In446       O449   2.222       .  S
In446       O457   2.268       .  S
In446       O451   2.270       .  S
In446       O453   2.294       .  S
In446       O454   2.259       .  S
In446       O455   2.215       .  S
In446       O458   2.234       .  S
C447        O453   1.269       .  A
C447        O455   1.256       .  A
C447       C1549   1.490       .  S
O448        C456   1.263       .  A
O449        C456   1.262       .  A
C450        O457   1.258       .  A
C450        O451   1.261       .  A
C450       C3070   1.491       .  S
C452        O454   1.261       .  A
C452        O458   1.261       .  A
C452       C3910   1.483       .  S
C456       C1642   1.470       .  S
C459       C1465   1.564       .  S
C459       C1493   1.578       .  S
C459       C1521   1.586       .  S
C459       C1558   1.584       .  S
In460       O462   2.224       .  S
In460       O463   2.241       .  S
In460       O471   2.240       .  S
In460       O465   2.286       .  S
In460       O467   2.296       .  S
In460       O468   2.221       .  S
In460       O469   2.224       .  S
In460       O472   2.256       .  S
C461        O467   1.270       .  A
C461        O469   1.259       .  A
C461       C1409   1.497       .  S
O462        C470   1.261       .  A
O463        C470   1.262       .  A
C464        O471   1.259       .  A
C464        O465   1.267       .  A
C464       C2202   1.495       .  S
C466        O468   1.261       .  A
C466        O472   1.266       .  A
C466       C1446   1.484       .  S
C470       C1390   1.477       .  S
In473       O475   2.279       .  S
In473       O476   2.234       .  S
In473       O484   2.239       .  S
In473       O478   2.305       .  S
In473       O480   2.269       .  S
In473       O481   2.243       .  S
In473       O482   2.259       .  S
In473       O485   2.228       .  S
C474        O480   1.264       .  A
C474        O482   1.258       .  A
C474       C1530   1.495       .  S
O475        C483   1.263       .  A
O476        C483   1.258       .  A
C477        O484   1.256       .  A
C477        O478   1.267       .  A
C477       C3406   1.502       .  S
C479        O481   1.259       .  A
C479        O485   1.261       .  A
C479       C4601   1.474       .  S
C483       C1437   1.486       .  S
C486       C1334   1.586       .  S
C486       C1353   1.581       .  S
C486       C1418   1.580       .  S
C486       C1502   1.583       .  S
In487       O489   2.270       .  S
In487       O490   2.213       .  S
In487       O498   2.285       .  S
In487       O492   2.278       .  S
In487       O494   2.236       .  S
In487       O495   2.231       .  S
In487       O496   2.312       .  S
In487       O499   2.244       .  S
C488        O494   1.255       .  A
C488        O496   1.269       .  A
C488       C1269   1.499       .  S
O489        C497   1.267       .  A
O490        C497   1.262       .  A
C491        O498   1.261       .  A
C491        O492   1.258       .  A
C491       C3266   1.497       .  S
C493        O495   1.262       .  A
C493        O499   1.262       .  A
C493       C4069   1.480       .  S
C497       C1297   1.488       .  S
In500       O502   2.232       .  S
In500       O503   2.251       .  S
In500       O511   2.267       .  S
In500       O505   2.293       .  S
In500       O507   2.324       .  S
In500       O508   2.236       .  S
In500       O509   2.235       .  S
In500       O512   2.254       .  S
C501        O507   1.269       .  A
C501        O509   1.257       .  A
C501       C1362   1.505       .  S
O502        C510   1.261       .  A
O503        C510   1.260       .  A
C504        O511   1.258       .  A
C504        O505   1.261       .  A
C504       C1838   1.502       .  S
C506        O508   1.261       .  A
C506        O512   1.265       .  A
C506       C1306   1.479       .  S
C510       C1241   1.478       .  S
C513       C1194   1.574       .  S
C513       C1213   1.576       .  S
C513       C1474   1.581       .  S
C513       C1614   1.587       .  S
In514       O516   2.261       .  S
In514       O517   2.216       .  S
In514       O525   2.253       .  S
In514       O519   2.302       .  S
In514       O521   2.297       .  S
In514       O522   2.216       .  S
In514       O523   2.230       .  S
In514       O526   2.284       .  S
C515        O521   1.269       .  A
C515        O523   1.255       .  A
C515       C1222   1.496       .  S
O516        C524   1.263       .  A
O517        C524   1.258       .  A
C518        O525   1.255       .  A
C518        O519   1.262       .  A
C518       C2006   1.499       .  S
C520        O522   1.259       .  A
C520        O526   1.266       .  A
C520       C1157   1.485       .  S
C524       C1129   1.477       .  S
In527       O529   2.277       .  S
In527       O530   2.237       .  S
In527       O538   2.260       .  S
In527       O532   2.315       .  S
In527       O534   2.318       .  S
In527       O535   2.232       .  S
In527       O536   2.244       .  S
In527       O539   2.243       .  S
C528        O534   1.266       .  A
C528        O536   1.255       .  A
C528       C1101   1.503       .  S
O529        C537   1.265       .  A
O530        C537   1.258       .  A
C531        O538   1.257       .  A
C531        O532   1.265       .  A
C531       C3714   1.508       .  S
C533        O535   1.263       .  A
C533        O539   1.264       .  A
C533       C4330   1.480       .  S
C537       C1166   1.493       .  S
C540       C1110   1.589       .  S
C540       C1185   1.559       .  S
C540       C1278   1.591       .  S
C540       C1325   1.580       .  S
In541       O543   2.218       .  S
In541       O544   2.263       .  S
In541       O552   2.223       .  S
In541       O546   2.287       .  S
In541       O548   2.278       .  S
In541       O549   2.210       .  S
In541       O550   2.249       .  S
In541       O553   2.231       .  S
C542        O548   1.257       .  A
C542        O550   1.258       .  A
C542       C1045   1.489       .  S
O543        C551   1.260       .  A
O544        C551   1.268       .  A
C545        O552   1.254       .  A
C545        O546   1.264       .  A
C545       C2333   1.486       .  S
C547        O549   1.260       .  A
C547        O553   1.260       .  A
C547       C2034   1.468       .  S
C551       C1073   1.487       .  S
In554       O556   2.231       .  S
In554       O557   2.237       .  S
In554       O565   2.244       .  S
In554       O559   2.330       .  S
In554       O561   2.305       .  S
In554       O562   2.217       .  S
In554       O563   2.258       .  S
In554       O566   2.269       .  S
C555        O561   1.268       .  A
C555        O563   1.257       .  A
C555       C1017   1.504       .  S
O556        C564   1.262       .  A
O557        C564   1.261       .  A
C558        O565   1.255       .  A
C558        O559   1.268       .  A
C558       C4302   1.508       .  S
C560        O562   1.261       .  A
C560        O566   1.266       .  A
C560       C1082   1.479       .  S
C564       C1138   1.478       .  S
In567       O569   2.230       .  S
In567       O570   2.222       .  S
In567       O578   2.250       .  S
In567       O572   2.289       .  S
In567       O574   2.299       .  S
In567       O575   2.203       .  S
In567       O576   2.220       .  S
In567       O579   2.280       .  S
C568        O574   1.272       .  A
C568        O576   1.256       .  A
C568        C961   1.495       .  S
O569        C577   1.260       .  A
O570        C577   1.261       .  A
C571        O578   1.259       .  A
C571        O572   1.266       .  A
C571       C3882   1.500       .  S
C573        O575   1.259       .  A
C573        O579   1.267       .  A
C573        C989   1.476       .  S
C577       C1577   1.467       .  S
In580       O582   2.256       .  S
In580       O583   2.214       .  S
In580       O591   2.253       .  S
In580       O585   2.291       .  S
In580       O587   2.286       .  S
In580       O588   2.246       .  S
In580       O589   2.244       .  S
In580       O592   2.230       .  S
C581        O587   1.268       .  A
C581        O589   1.258       .  A
C581        C942   1.498       .  S
O582        C590   1.264       .  A
O583        C590   1.262       .  A
C584        O591   1.258       .  A
C584        O585   1.264       .  A
C584       C2902   1.499       .  S
C586        O588   1.260       .  A
C586        O592   1.263       .  A
C586       C1689   1.479       .  S
C590        C998   1.478       .  S
C593        C877   1.577       .  S
C593        C905   1.584       .  S
C593        C970   1.580       .  S
C593       C1026   1.592       .  S
C594        C830   1.580       .  S
C594        C849   1.579       .  S
C594        C886   1.590       .  S
C594       C1054   1.574       .  S
C595        C765   1.575       .  S
C595        C793   1.579       .  S
C595        C914   1.594       .  S
C595        C933   1.589       .  S
In596       O598   2.279       .  S
In596       O599   2.221       .  S
In596       O607   2.313       .  S
In596       O601   2.226       .  S
In596       O603   2.268       .  S
In596       O604   2.221       .  S
In596       O605   2.260       .  S
In596       O608   2.252       .  S
C597        O603   1.260       .  A
C597        O605   1.259       .  A
C597        C802   1.491       .  S
O598        C606   1.268       .  A
O599        C606   1.259       .  A
C600        O607   1.264       .  A
C600        O601   1.253       .  A
C600       C2454   1.495       .  S
C602        O604   1.260       .  A
C602        O608   1.262       .  A
C602       C1866   1.476       .  S
C606        C746   1.488       .  S
In609       O611   2.242       .  S
In609       O612   2.239       .  S
In609       O620   2.262       .  S
In609       O614   2.300       .  S
In609       O616   2.232       .  S
In609       O617   2.233       .  S
In609       O618   2.311       .  S
In609       O621   2.271       .  S
C610        O616   1.258       .  A
C610        O618   1.270       .  A
C610        C709   1.502       .  S
O611        C619   1.262       .  A
O612        C619   1.261       .  A
C613        O620   1.259       .  A
C613        O614   1.264       .  A
C613       C4041   1.505       .  S
C615        O617   1.261       .  A
C615        O621   1.265       .  A
C615        C737   1.485       .  S
C619       C1250   1.477       .  S
In622       O624   2.269       .  S
In622       O625   2.237       .  S
In622       O633   2.253       .  S
In622       O627   2.299       .  S
In622       O629   2.261       .  S
In622       O630   2.244       .  S
In622       O631   2.282       .  S
In622       O634   2.261       .  S
C623        O629   1.259       .  A
C623        O631   1.262       .  A
C623        C858   1.495       .  S
O624        C632   1.264       .  A
O625        C632   1.261       .  A
C626        O633   1.255       .  A
C626        O627   1.261       .  A
C626       C2762   1.497       .  S
C628        O630   1.260       .  A
C628        O634   1.262       .  A
C628       C2230   1.485       .  S
C632        C681   1.487       .  S
In635       O637   2.252       .  S
In635       O638   2.227       .  S
In635       O646   2.248       .  S
In635       O640   2.305       .  S
In635       O642   2.276       .  S
In635       O643   2.215       .  S
In635       O644   2.291       .  S
In635       O647   2.274       .  S
C636        O642   1.258       .  A
C636        O644   1.262       .  A
C636        C653   1.503       .  S
O637        C645   1.262       .  A
O638        C645   1.260       .  A
C639        O646   1.255       .  A
C639        O640   1.267       .  A
C639       C4582   1.500       .  S
C641        O643   1.262       .  A
C641        O647   1.266       .  A
C641        C690   1.481       .  S
C645       C1381   1.479       .  S
C648        C662   1.587       .  S
C648        C718   1.579       .  S
C648        C774   1.594       .  S
C648        C821   1.587       .  S
C649        C650   1.404       .  A
C649        C654   1.409       .  A
C649        H659   1.084       .  S
C650        C655   1.504       .  S
C650        C651   1.415       .  A
C651        C652   1.411       .  A
C651        N656   1.431       .  S
C652        C653   1.408       .  A
C652        H657   1.084       .  S
C653        C654   1.416       .  A
C654        N658   1.429       .  S
C655        C660   1.406       .  A
C655        C664   1.401       .  A
N656        O671   1.262       .  A
N656        O672   1.262       .  A
N658        O669   1.262       .  A
N658        O670   1.262       .  A
C660        C661   1.407       .  A
C660        N665   1.429       .  S
C661        C662   1.423       .  A
C661        H666   1.075       .  S
C662        C663   1.434       .  A
C663        C664   1.412       .  A
C663        N667   1.430       .  S
C664        H668   1.084       .  S
N665        O675   1.262       .  A
N665        O676   1.262       .  A
N667        O673   1.260       .  A
N667        O674   1.262       .  A
C677        C678   1.400       .  A
C677        C682   1.402       .  A
C677        H687   1.084       .  S
C678        C683   1.482       .  S
C678        C679   1.406       .  A
C679        C680   1.402       .  A
C679        N684   1.428       .  S
C680        C681   1.407       .  A
C680        H685   1.084       .  S
C681        C682   1.414       .  A
C682        N686   1.428       .  S
C683        C688   1.408       .  A
C683        C692   1.404       .  A
N684        O699   1.262       .  A
N684        O700   1.262       .  A
N686        O697   1.261       .  A
N686        O698   1.262       .  A
C688        C689   1.394       .  A
C688        N693   1.429       .  S
C689        C690   1.402       .  A
C689        H694   1.084       .  S
C690        C691   1.414       .  A
C691        C692   1.409       .  A
C691        N695   1.428       .  S
C692        H696   1.083       .  S
N693        O703   1.262       .  A
N693        O704   1.262       .  A
N695        O701   1.262       .  A
N695        O702   1.262       .  A
C705        C706   1.408       .  A
C705        C710   1.413       .  A
C705        H715   1.083       .  S
C706        C711   1.499       .  S
C706        C707   1.408       .  A
C707        C708   1.403       .  A
C707        N712   1.429       .  S
C708        C709   1.410       .  A
C708        H713   1.084       .  S
C709        C710   1.415       .  A
C710        N714   1.428       .  S
C711        C716   1.402       .  A
C711        C720   1.401       .  A
N712        O727   1.262       .  A
N712        O728   1.262       .  A
N714        O725   1.262       .  A
N714        O726   1.262       .  A
C716        C717   1.404       .  A
C716        N721   1.429       .  S
C717        C718   1.422       .  A
C717        H722   1.083       .  S
C718        C719   1.441       .  A
C719        C720   1.415       .  A
C719        N723   1.435       .  S
C720        H724   1.084       .  S
N721        O731   1.262       .  A
N721        O732   1.262       .  A
N723        O729   1.260       .  A
N723        O730   1.262       .  A
C733        C734   1.405       .  A
C733        C738   1.407       .  A
C733        H743   1.083       .  S
C734        C739   1.490       .  S
C734        C735   1.411       .  A
C735        C736   1.401       .  A
C735        N740   1.429       .  S
C736        C737   1.404       .  A
C736        H741   1.084       .  S
C737        C738   1.414       .  A
C738        N742   1.430       .  S
C739        C744   1.411       .  A
C739        C748   1.402       .  A
N740        O755   1.262       .  A
N740        O756   1.262       .  A
N742        O753   1.262       .  A
N742        O754   1.262       .  A
C744        C745   1.408       .  A
C744        N749   1.428       .  S
C745        C746   1.407       .  A
C745        H750   1.083       .  S
C746        C747   1.416       .  A
C747        C748   1.398       .  A
C747        N751   1.430       .  S
C748        H752   1.084       .  S
N749        O759   1.262       .  A
N749        O760   1.262       .  A
N751        O757   1.262       .  A
N751        O758   1.262       .  A
C761        C762   1.397       .  A
C761        C766   1.396       .  A
C761        H771   1.083       .  S
C762        C767   1.498       .  S
C762        C763   1.412       .  A
C763        C764   1.408       .  A
C763        N768   1.429       .  S
C764        C765   1.418       .  A
C764        H769   1.079       .  S
C765        C766   1.432       .  A
C766        N770   1.431       .  S
C767        C772   1.408       .  A
C767        C776   1.399       .  A
N768        O783   1.262       .  A
N768        O784   1.262       .  A
N770        O781   1.262       .  A
N770        O782   1.262       .  A
C772        C773   1.397       .  A
C772        N777   1.431       .  S
C773        C774   1.421       .  A
C773        H778   1.078       .  S
C774        C775   1.434       .  A
C775        C776   1.409       .  A
C775        N779   1.427       .  S
C776        H780   1.083       .  S
N777        O787   1.262       .  A
N777        O788   1.261       .  A
N779        O785   1.262       .  A
N779        O786   1.263       .  A
C789        C790   1.398       .  A
C789        C794   1.407       .  A
C789        H799   1.084       .  S
C790        C795   1.489       .  S
C790        C791   1.401       .  A
C791        C792   1.400       .  A
C791        N796   1.429       .  S
C792        C793   1.419       .  A
C792        H797   1.071       .  S
C793        C794   1.438       .  A
C794        N798   1.433       .  S
C795        C800   1.408       .  A
C795        C804   1.403       .  A
N796        O811   1.262       .  A
N796        O812   1.262       .  A
N798        O809   1.261       .  A
N798        O810   1.263       .  A
C800        C801   1.405       .  A
C800        N805   1.429       .  S
C801        C802   1.409       .  A
C801        H806   1.084       .  S
C802        C803   1.414       .  A
C803        C804   1.403       .  A
C803        N807   1.428       .  S
C804        H808   1.084       .  S
N805        O815   1.262       .  A
N805        O816   1.262       .  A
N807        O813   1.262       .  A
N807        O814   1.262       .  A
C817        C818   1.398       .  A
C817        C822   1.408       .  A
C817        H827   1.084       .  S
C818        C823   1.498       .  S
C818        C819   1.407       .  A
C819        C820   1.401       .  A
C819        N824   1.430       .  S
C820        C821   1.423       .  A
C820        H825   1.083       .  S
C821        C822   1.439       .  A
C822        N826   1.430       .  S
C823        C828   1.406       .  A
C823        C832   1.397       .  A
N824        O839   1.262       .  A
N824        O840   1.262       .  A
N826        O837   1.260       .  A
N826        O838   1.263       .  A
C828        C829   1.402       .  A
C828        N833   1.429       .  S
C829        C830   1.417       .  A
C829        H834   1.079       .  S
C830        C831   1.443       .  A
C831        C832   1.407       .  A
C831        N835   1.433       .  S
C832        H836   1.083       .  S
N833        O843   1.262       .  A
N833        O844   1.262       .  A
N835        O841   1.262       .  A
N835        O842   1.262       .  A
C845        C846   1.398       .  A
C845        C850   1.404       .  A
C845        H855   1.083       .  S
C846        C851   1.496       .  S
C846        C847   1.408       .  A
C847        C848   1.405       .  A
C847        N852   1.429       .  S
C848        C849   1.419       .  A
C848        H853   1.078       .  S
C849        C850   1.432       .  A
C850        N854   1.428       .  S
C851        C856   1.413       .  A
C851        C860   1.402       .  A
N852        O867   1.262       .  A
N852        O868   1.261       .  A
N854        O865   1.262       .  A
N854        O866   1.262       .  A
C856        C857   1.406       .  A
C856        N861   1.429       .  S
C857        C858   1.407       .  A
C857        H862   1.084       .  S
C858        C859   1.415       .  A
C859        C860   1.404       .  A
C859        N863   1.427       .  S
C860        H864   1.083       .  S
N861        O871   1.262       .  A
N861        O872   1.262       .  A
N863        O869   1.261       .  A
N863        O870   1.262       .  A
C873        C874   1.398       .  A
C873        C878   1.404       .  A
C873        H883   1.083       .  S
C874        C879   1.497       .  S
C874        C875   1.412       .  A
C875        C876   1.407       .  A
C875        N880   1.430       .  S
C876        C877   1.418       .  A
C876        H881   1.082       .  S
C877        C878   1.435       .  A
C878        N882   1.436       .  S
C879        C884   1.407       .  A
C879        C888   1.397       .  A
N880        O895   1.262       .  A
N880        O896   1.262       .  A
N882        O893   1.262       .  A
N882        O894   1.261       .  A
C884        C885   1.398       .  A
C884        N889   1.429       .  S
C885        C886   1.416       .  A
C885        H890   1.077       .  S
C886        C887   1.442       .  A
C887        C888   1.409       .  A
C887        N891   1.429       .  S
C888        H892   1.083       .  S
N889        O899   1.262       .  A
N889        O900   1.261       .  A
N891        O897   1.262       .  A
N891        O898   1.262       .  A
C901        C902   1.400       .  A
C901        C906   1.400       .  A
C901        H911   1.083       .  S
C902        C907   1.510       .  S
C902        C903   1.410       .  A
C903        C904   1.410       .  A
C903        N908   1.428       .  S
C904        C905   1.425       .  A
C904        H909   1.083       .  S
C905        C906   1.437       .  A
C906        N910   1.427       .  S
C907        C912   1.408       .  A
C907        C916   1.407       .  A
N908        O923   1.262       .  A
N908        O924   1.262       .  A
N910        O921   1.260       .  A
N910        O922   1.263       .  A
C912        C913   1.393       .  A
C912        N917   1.433       .  S
C913        C914   1.421       .  A
C913        H918   1.081       .  S
C914        C915   1.434       .  A
C915        C916   1.419       .  A
C915        N919   1.434       .  S
C916        H920   1.080       .  S
N917        O927   1.262       .  A
N917        O928   1.262       .  A
N919        O925   1.260       .  A
N919        O926   1.263       .  A
C929        C930   1.399       .  A
C929        C934   1.414       .  A
C929        H939   1.084       .  S
C930        C935   1.496       .  S
C930        C931   1.401       .  A
C931        C932   1.401       .  A
C931        N936   1.430       .  S
C932        C933   1.424       .  A
C932        H937   1.076       .  S
C933        C934   1.444       .  A
C934        N938   1.434       .  S
C935        C940   1.413       .  A
C935        C944   1.402       .  A
N936        O951   1.262       .  A
N936        O952   1.262       .  A
N938        O949   1.263       .  A
N938        O950   1.261       .  A
C940        C941   1.409       .  A
C940        N945   1.429       .  S
C941        C942   1.406       .  A
C941        H946   1.083       .  S
C942        C943   1.419       .  A
C943        C944   1.405       .  A
C943        N947   1.429       .  S
C944        H948   1.084       .  S
N945        O955   1.262       .  A
N945        O956   1.262       .  A
N947        O953   1.262       .  A
N947        O954   1.262       .  A
C957        C958   1.399       .  A
C957        C962   1.401       .  A
C957        H967   1.084       .  S
C958        C963   1.489       .  S
C958        C959   1.410       .  A
C959        C960   1.410       .  A
C959        N964   1.427       .  S
C960        C961   1.407       .  A
C960        H965   1.083       .  S
C961        C962   1.420       .  A
C962        N966   1.430       .  S
C963        C968   1.405       .  A
C963        C972   1.392       .  A
N964        O979   1.262       .  A
N964        O980   1.262       .  A
N966        O977   1.262       .  A
N966        O978   1.262       .  A
C968        C969   1.409       .  A
C968        N973   1.429       .  S
C969        C970   1.420       .  A
C969        H974   1.079       .  S
C970        C971   1.438       .  A
C971        C972   1.402       .  A
C971        N975   1.431       .  S
C972        H976   1.084       .  S
N973        O983   1.262       .  A
N973        O984   1.262       .  A
N975        O981   1.262       .  A
N975        O982   1.262       .  A
C985        C986   1.405       .  A
C985        C990   1.408       .  A
C985        H995   1.084       .  S
C986        C991   1.479       .  S
C986        C987   1.408       .  A
C987        C988   1.394       .  A
C987        N992   1.430       .  S
C988        C989   1.402       .  A
C988        H993   1.084       .  S
C989        C990   1.410       .  A
C990        N994   1.427       .  S
C991        C996   1.407       .  A
C991       C1000   1.403       .  A
N992       O1007   1.262       .  A
N992       O1008   1.262       .  A
N994       O1005   1.262       .  A
N994       O1006   1.262       .  A
C996        C997   1.397       .  A
C996       N1001   1.428       .  S
C997        C998   1.403       .  A
C997       H1002   1.084       .  S
C998        C999   1.413       .  A
C999       C1000   1.403       .  A
C999       N1003   1.429       .  S
C1000      H1004   1.084       .  S
N1001      O1011   1.262       .  A
N1001      O1012   1.262       .  A
N1003      O1009   1.262       .  A
N1003      O1010   1.262       .  A
C1013      C1014   1.399       .  A
C1013      C1018   1.405       .  A
C1013      H1023   1.084       .  S
C1014      C1019   1.498       .  S
C1014      C1015   1.412       .  A
C1015      C1016   1.414       .  A
C1015      N1020   1.427       .  S
C1016      C1017   1.410       .  A
C1016      H1021   1.083       .  S
C1017      C1018   1.418       .  A
C1018      N1022   1.427       .  S
C1019      C1024   1.404       .  A
C1019      C1028   1.397       .  A
N1020      O1035   1.261       .  A
N1020      O1036   1.262       .  A
N1022      O1033   1.262       .  A
N1022      O1034   1.262       .  A
C1024      C1025   1.407       .  A
C1024      N1029   1.429       .  S
C1025      C1026   1.420       .  A
C1025      H1030   1.073       .  S
C1026      C1027   1.441       .  A
C1027      C1028   1.410       .  A
C1027      N1031   1.428       .  S
C1028      H1032   1.084       .  S
N1029      O1039   1.262       .  A
N1029      O1040   1.262       .  A
N1031      O1037   1.262       .  A
N1031      O1038   1.262       .  A
C1041      C1042   1.404       .  A
C1041      C1046   1.409       .  A
C1041      H1051   1.084       .  S
C1042      C1047   1.488       .  S
C1042      C1043   1.409       .  A
C1043      C1044   1.398       .  A
C1043      N1048   1.429       .  S
C1044      C1045   1.403       .  A
C1044      H1049   1.084       .  S
C1045      C1046   1.417       .  A
C1046      N1050   1.429       .  S
C1047      C1052   1.402       .  A
C1047      C1056   1.396       .  A
N1048      O1063   1.262       .  A
N1048      O1064   1.262       .  A
N1050      O1061   1.262       .  A
N1050      O1062   1.262       .  A
C1052      C1053   1.402       .  A
C1052      N1057   1.429       .  S
C1053      C1054   1.423       .  A
C1053      H1058   1.083       .  S
C1054      C1055   1.438       .  A
C1055      C1056   1.407       .  A
C1055      N1059   1.431       .  S
C1056      H1060   1.084       .  S
N1057      O1067   1.262       .  A
N1057      O1068   1.262       .  A
N1059      O1065   1.260       .  A
N1059      O1066   1.263       .  A
C1069      C1070   1.403       .  A
C1069      C1074   1.396       .  A
C1069      H1079   1.084       .  S
C1070      C1075   1.490       .  S
C1070      C1071   1.411       .  A
C1071      C1072   1.406       .  A
C1071      N1076   1.429       .  S
C1072      C1073   1.406       .  A
C1072      H1077   1.083       .  S
C1073      C1074   1.415       .  A
C1074      N1078   1.429       .  S
C1075      C1080   1.412       .  A
C1075      C1084   1.404       .  A
N1076      O1091   1.262       .  A
N1076      O1092   1.262       .  A
N1078      O1089   1.262       .  A
N1078      O1090   1.262       .  A
C1080      C1081   1.399       .  A
C1080      N1085   1.430       .  S
C1081      C1082   1.402       .  A
C1081      H1086   1.084       .  S
C1082      C1083   1.411       .  A
C1083      C1084   1.403       .  A
C1083      N1087   1.426       .  S
C1084      H1088   1.083       .  S
N1085      O1095   1.262       .  A
N1085      O1096   1.262       .  A
N1087      O1093   1.260       .  A
N1087      O1094   1.262       .  A
C1097      C1098   1.410       .  A
C1097      C1102   1.411       .  A
C1097      H1107   1.084       .  S
C1098      C1103   1.504       .  S
C1098      C1099   1.411       .  A
C1099      C1100   1.406       .  A
C1099      N1104   1.430       .  S
C1100      C1101   1.410       .  A
C1100      H1105   1.084       .  S
C1101      C1102   1.413       .  A
C1102      N1106   1.428       .  S
C1103      C1108   1.411       .  A
C1103      C1112   1.392       .  A
N1104      O1119   1.262       .  A
N1104      O1120   1.262       .  A
N1106      O1117   1.262       .  A
N1106      O1118   1.262       .  A
C1108      C1109   1.415       .  A
C1108      N1113   1.430       .  S
C1109      C1110   1.421       .  A
C1109      H1114   1.080       .  S
C1110      C1111   1.432       .  A
C1111      C1112   1.402       .  A
C1111      N1115   1.422       .  S
C1112      H1116   1.085       .  S
N1113      O1123   1.262       .  A
N1113      O1124   1.262       .  A
N1115      O1121   1.263       .  A
N1115      O1122   1.263       .  A
C1125      C1126   1.400   1_556  A
C1125      C1130   1.400   1_556  A
C1125      H1135   1.084       .  S
C1126      C1131   1.469   1_554  S
C1126      C1127   1.403       .  A
C1127      C1128   1.394       .  A
C1127      N1132   1.429       .  S
C1128      C1129   1.406       .  A
C1128      H1133   1.084       .  S
C1129      C1130   1.413       .  A
C1130      N1134   1.428   1_554  S
C1131      C1136   1.404   1_556  A
C1131      C1140   1.398       .  A
N1132      O1147   1.262       .  A
N1132      O1148   1.262       .  A
N1134      O1145   1.262       .  A
N1134      O1146   1.262       .  A
C1136      C1137   1.396   1_554  A
C1136      N1141   1.429       .  S
C1137      C1138   1.405       .  A
C1137      H1142   1.084       .  S
C1138      C1139   1.415       .  A
C1139      C1140   1.399       .  A
C1139      N1143   1.429       .  S
C1140      H1144   1.084       .  S
N1141      O1151   1.262       .  A
N1141      O1152   1.262       .  A
N1143      O1149   1.262       .  A
N1143      O1150   1.262       .  A
C1153      C1154   1.406       .  A
C1153      C1158   1.409       .  A
C1153      H1163   1.084       .  S
C1154      C1159   1.489       .  S
C1154      C1155   1.408       .  A
C1155      C1156   1.398       .  A
C1155      N1160   1.429       .  S
C1156      C1157   1.404       .  A
C1156      H1161   1.084       .  S
C1157      C1158   1.414       .  A
C1158      N1162   1.429       .  S
C1159      C1164   1.409       .  A
C1159      C1168   1.401       .  A
N1160      O1175   1.262       .  A
N1160      O1176   1.262       .  A
N1162      O1173   1.262       .  A
N1162      O1174   1.262       .  A
C1164      C1165   1.408       .  A
C1164      N1169   1.428       .  S
C1165      C1166   1.408       .  A
C1165      H1170   1.083       .  S
C1166      C1167   1.417       .  A
C1167      C1168   1.399       .  A
C1167      N1171   1.429       .  S
C1168      H1172   1.084       .  S
N1169      O1179   1.262       .  A
N1169      O1180   1.262       .  A
N1171      O1177   1.262       .  A
N1171      O1178   1.262       .  A
C1181      C1182   1.405       .  A
C1181      C1186   1.400       .  A
C1181      H1191   1.079       .  S
C1182      C1187   1.507       .  S
C1182      C1183   1.415       .  A
C1183      C1184   1.403       .  A
C1183      N1188   1.433       .  S
C1184      C1185   1.412       .  A
C1184      H1189   1.080       .  S
C1185      C1186   1.428       .  A
C1186      N1190   1.435       .  S
C1187      C1192   1.413       .  A
C1187      C1196   1.405       .  A
N1188      O1203   1.263       .  A
N1188      O1204   1.262       .  A
N1190      O1201   1.261       .  A
N1190      O1202   1.262       .  A
C1192      C1193   1.401       .  A
C1192      N1197   1.433       .  S
C1193      C1194   1.420       .  A
C1193      H1198   1.082       .  S
C1194      C1195   1.433       .  A
C1195      C1196   1.403       .  A
C1195      N1199   1.436       .  S
C1196      H1200   1.079       .  S
N1197      O1207   1.263       .  A
N1197      O1208   1.262       .  A
N1199      O1205   1.261       .  A
N1199      O1206   1.263       .  A
C1209      C1210   1.400       .  A
C1209      C1214   1.407       .  A
C1209      H1219   1.083       .  S
C1210      C1215   1.499       .  S
C1210      C1211   1.408       .  A
C1211      C1212   1.404       .  A
C1211      N1216   1.430       .  S
C1212      C1213   1.416       .  A
C1212      H1217   1.078       .  S
C1213      C1214   1.436       .  A
C1214      N1218   1.434       .  S
C1215      C1220   1.414       .  A
C1215      C1224   1.402       .  A
N1216      O1231   1.262       .  A
N1216      O1232   1.262       .  A
N1218      O1229   1.262       .  A
N1218      O1230   1.260       .  A
C1220      C1221   1.410       .  A
C1220      N1225   1.428       .  S
C1221      C1222   1.406       .  A
C1221      H1226   1.083       .  S
C1222      C1223   1.419       .  A
C1223      C1224   1.401       .  A
C1223      N1227   1.430       .  S
C1224      H1228   1.084       .  S
N1225      O1235   1.262       .  A
N1225      O1236   1.262       .  A
N1227      O1233   1.262       .  A
N1227      O1234   1.262       .  A
C1237      C1238   1.403       .  A
C1237      C1242   1.402       .  A
C1237      H1247   1.084       .  S
C1238      C1243   1.481       .  S
C1238      C1239   1.409       .  A
C1239      C1240   1.396       .  A
C1239      N1244   1.429       .  S
C1240      C1241   1.403       .  A
C1240      H1245   1.084       .  S
C1241      C1242   1.413       .  A
C1242      N1246   1.429       .  S
C1243      C1248   1.410       .  A
C1243      C1252   1.403       .  A
N1244      O1259   1.262       .  A
N1244      O1260   1.262       .  A
N1246      O1257   1.262       .  A
N1246      O1258   1.262       .  A
C1248      C1249   1.399       .  A
C1248      N1253   1.429       .  S
C1249      C1250   1.404       .  A
C1249      H1254   1.084       .  S
C1250      C1251   1.411       .  A
C1251      C1252   1.399       .  A
C1251      N1255   1.429       .  S
C1252      H1256   1.084       .  S
N1253      O1263   1.262       .  A
N1253      O1264   1.262       .  A
N1255      O1261   1.262       .  A
N1255      O1262   1.262       .  A
C1265      C1266   1.399       .  A
C1265      C1270   1.404       .  A
C1265      H1275   1.084       .  S
C1266      C1271   1.495       .  S
C1266      C1267   1.413       .  A
C1267      C1268   1.412       .  A
C1267      N1272   1.428       .  S
C1268      C1269   1.407       .  A
C1268      H1273   1.083       .  S
C1269      C1270   1.419       .  A
C1270      N1274   1.430       .  S
C1271      C1276   1.402       .  A
C1271      C1280   1.397       .  A
N1272      O1287   1.262       .  A
N1272      O1288   1.262       .  A
N1274      O1285   1.262       .  A
N1274      O1286   1.262       .  A
C1276      C1277   1.405       .  A
C1276      N1281   1.429       .  S
C1277      C1278   1.424       .  A
C1277      H1282   1.077       .  S
C1278      C1279   1.438       .  A
C1279      C1280   1.411       .  A
C1279      N1283   1.431       .  S
C1280      H1284   1.084       .  S
N1281      O1291   1.262       .  A
N1281      O1292   1.262       .  A
N1283      O1289   1.262       .  A
N1283      O1290   1.262       .  A
C1293      C1294   1.407       .  A
C1293      C1298   1.407       .  A
C1293      H1303   1.083       .  S
C1294      C1299   1.495       .  S
C1294      C1295   1.414       .  A
C1295      C1296   1.396       .  A
C1295      N1300   1.430       .  S
C1296      C1297   1.404       .  A
C1296      H1301   1.084       .  S
C1297      C1298   1.413       .  A
C1298      N1302   1.428       .  S
C1299      C1304   1.414       .  A
C1299      C1308   1.406       .  A
N1300      O1315   1.262       .  A
N1300      O1316   1.262       .  A
N1302      O1313   1.262       .  A
N1302      O1314   1.262       .  A
C1304      C1305   1.402       .  A
C1304      N1309   1.429       .  S
C1305      C1306   1.403       .  A
C1305      H1310   1.084       .  S
C1306      C1307   1.410       .  A
C1307      C1308   1.401       .  A
C1307      N1311   1.429       .  S
C1308      H1312   1.083       .  S
N1309      O1319   1.262       .  A
N1309      O1320   1.262       .  A
N1311      O1317   1.262       .  A
N1311      O1318   1.262       .  A
C1321      C1322   1.397       .  A
C1321      C1326   1.406       .  A
C1321      H1331   1.084       .  S
C1322      C1327   1.493       .  S
C1322      C1323   1.404       .  A
C1323      C1324   1.402       .  A
C1323      N1328   1.429       .  S
C1324      C1325   1.419       .  A
C1324      H1329   1.083       .  S
C1325      C1326   1.448       .  A
C1326      N1330   1.439       .  S
C1327      C1332   1.403       .  A
C1327      C1336   1.400       .  A
N1328      O1343   1.262       .  A
N1328      O1344   1.261       .  A
N1330      O1341   1.262       .  A
N1330      O1342   1.260       .  A
C1332      C1333   1.397       .  A
C1332      N1337   1.430       .  S
C1333      C1334   1.421       .  A
C1333      H1338   1.078       .  S
C1334      C1335   1.438       .  A
C1335      C1336   1.410       .  A
C1335      N1339   1.431       .  S
C1336      H1340   1.084       .  S
N1337      O1347   1.262       .  A
N1337      O1348   1.262       .  A
N1339      O1345   1.261       .  A
N1339      O1346   1.262       .  A
C1349      C1350   1.407       .  A
C1349      C1354   1.413       .  A
C1349      H1359   1.083       .  S
C1350      C1355   1.509       .  S
C1350      C1351   1.407       .  A
C1351      C1352   1.407       .  A
C1351      N1356   1.429       .  S
C1352      C1353   1.422       .  A
C1352      H1357   1.078       .  S
C1353      C1354   1.428       .  A
C1354      N1358   1.431       .  S
C1355      C1360   1.411       .  A
C1355      C1364   1.411       .  A
N1356      O1371   1.262       .  A
N1356      O1372   1.262       .  A
N1358      O1369   1.262       .  A
N1358      O1370   1.261       .  A
C1360      C1361   1.404       .  A
C1360      N1365   1.428       .  S
C1361      C1362   1.408       .  A
C1361      H1366   1.084       .  S
C1362      C1363   1.415       .  A
C1363      C1364   1.416       .  A
C1363      N1367   1.428       .  S
C1364      H1368   1.083       .  S
N1365      O1375   1.262       .  A
N1365      O1376   1.262       .  A
N1367      O1373   1.262       .  A
N1367      O1374   1.262       .  A
C1377      C1378   1.403       .  A
C1377      C1382   1.400       .  A
C1377      H1387   1.083       .  S
C1378      C1383   1.480       .  S
C1378      C1379   1.408       .  A
C1379      C1380   1.397       .  A
C1379      N1384   1.429       .  S
C1380      C1381   1.405       .  A
C1380      H1385   1.084       .  S
C1381      C1382   1.413       .  A
C1382      N1386   1.429       .  S
C1383      C1388   1.409       .  A
C1383      C1392   1.403       .  A
N1384      O1399   1.262       .  A
N1384      O1400   1.262       .  A
N1386      O1397   1.262       .  A
N1386      O1398   1.262       .  A
C1388      C1389   1.396       .  A
C1388      N1393   1.429       .  S
C1389      C1390   1.404       .  A
C1389      H1394   1.084       .  S
C1390      C1391   1.412       .  A
C1391      C1392   1.399       .  A
C1391      N1395   1.429       .  S
C1392      H1396   1.083       .  S
N1393      O1403   1.262       .  A
N1393      O1404   1.262       .  A
N1395      O1401   1.262       .  A
N1395      O1402   1.262       .  A
C1405      C1406   1.411       .  A
C1405      C1410   1.412       .  A
C1405      H1415   1.083       .  S
C1406      C1411   1.507       .  S
C1406      C1407   1.413       .  A
C1407      C1408   1.402       .  A
C1407      N1412   1.428       .  S
C1408      C1409   1.406       .  A
C1408      H1413   1.084       .  S
C1409      C1410   1.412       .  A
C1410      N1414   1.428       .  S
C1411      C1416   1.408       .  A
C1411      C1420   1.408       .  A
N1412      O1427   1.262       .  A
N1412      O1428   1.262       .  A
N1414      O1425   1.262       .  A
N1414      O1426   1.262       .  A
C1416      C1417   1.403       .  A
C1416      N1421   1.429       .  S
C1417      C1418   1.420       .  A
C1417      H1422   1.078       .  S
C1418      C1419   1.427       .  A
C1419      C1420   1.414       .  A
C1419      N1423   1.431       .  S
C1420      H1424   1.083       .  S
N1421      O1431   1.262       .  A
N1421      O1432   1.262       .  A
N1423      O1429   1.261       .  A
N1423      O1430   1.262       .  A
C1433      C1434   1.404       .  A
C1433      C1438   1.403       .  A
C1433      H1443   1.084       .  S
C1434      C1439   1.486       .  S
C1434      C1435   1.412       .  A
C1435      C1436   1.401       .  A
C1435      N1440   1.431       .  S
C1436      C1437   1.406       .  A
C1436      H1441   1.084       .  S
C1437      C1438   1.412       .  A
C1438      N1442   1.428       .  S
C1439      C1444   1.411       .  A
C1439      C1448   1.401       .  A
N1440      O1455   1.262       .  A
N1440      O1456   1.262       .  A
N1442      O1453   1.262       .  A
N1442      O1454   1.262       .  A
C1444      C1445   1.405       .  A
C1444      N1449   1.430       .  S
C1445      C1446   1.407       .  A
C1445      H1450   1.084       .  S
C1446      C1447   1.413       .  A
C1447      C1448   1.396       .  A
C1447      N1451   1.429       .  S
C1448      H1452   1.084       .  S
N1449      O1459   1.262       .  A
N1449      O1460   1.262       .  A
N1451      O1457   1.262       .  A
N1451      O1458   1.262       .  A
C1461      C1462   1.395       .  A
C1461      C1466   1.400       .  A
C1461      H1471   1.084       .  S
C1462      C1467   1.478       .  S
C1462      C1463   1.403       .  A
C1463      C1464   1.401       .  A
C1463      N1468   1.429       .  S
C1464      C1465   1.418       .  A
C1464      H1469   1.077       .  S
C1465      C1466   1.434       .  A
C1466      N1470   1.432       .  S
C1467      C1472   1.398       .  A
C1467      C1476   1.392       .  A
N1468      O1483   1.262       .  A
N1468      O1484   1.262       .  A
N1470      O1481   1.261       .  A
N1470      O1482   1.261       .  A
C1472      C1473   1.400       .  A
C1472      N1477   1.428       .  S
C1473      C1474   1.426       .  A
C1473      H1478   1.083       .  S
C1474      C1475   1.439       .  A
C1475      C1476   1.401       .  A
C1475      N1479   1.428       .  S
C1476      H1480   1.085       .  S
N1477      O1487   1.262       .  A
N1477      O1488   1.262       .  A
N1479      O1485   1.261       .  A
N1479      O1486   1.263       .  A
C1489      C1490   1.393       .  A
C1489      C1494   1.401       .  A
C1489      H1499   1.084       .  S
C1490      C1495   1.484       .  S
C1490      C1491   1.400       .  A
C1491      C1492   1.401       .  A
C1491      N1496   1.428       .  S
C1492      C1493   1.423       .  A
C1492      H1497   1.084       .  S
C1493      C1494   1.444       .  A
C1494      N1498   1.434       .  S
C1495      C1500   1.400       .  A
C1495      C1504   1.395       .  A
N1496      O1511   1.262       .  A
N1496      O1512   1.262       .  A
N1498      O1509   1.263       .  A
N1498      O1510   1.260       .  A
C1500      C1501   1.394       .  A
C1500      N1505   1.430       .  S
C1501      C1502   1.419       .  A
C1501      H1506   1.076       .  S
C1502      C1503   1.441       .  A
C1503      C1504   1.408       .  A
C1503      N1507   1.429       .  S
C1504      H1508   1.084       .  S
N1505      O1515   1.262       .  A
N1505      O1516   1.262       .  A
N1507      O1513   1.262       .  A
N1507      O1514   1.262       .  A
C1517      C1518   1.398       .  A
C1517      C1522   1.412       .  A
C1517      H1527   1.084       .  S
C1518      C1523   1.493       .  S
C1518      C1519   1.402       .  A
C1519      C1520   1.400       .  A
C1519      N1524   1.430       .  S
C1520      C1521   1.422       .  A
C1520      H1525   1.075       .  S
C1521      C1522   1.439       .  A
C1522      N1526   1.435       .  S
C1523      C1528   1.410       .  A
C1523      C1532   1.402       .  A
N1524      O1539   1.262       .  A
N1524      O1540   1.262       .  A
N1526      O1537   1.262       .  A
N1526      O1538   1.261       .  A
C1528      C1529   1.404       .  A
C1528      N1533   1.428       .  S
C1529      C1530   1.405       .  A
C1529      H1534   1.084       .  S
C1530      C1531   1.419       .  A
C1531      C1532   1.409       .  A
C1531      N1535   1.429       .  S
C1532      H1536   1.084       .  S
N1533      O1543   1.261       .  A
N1533      O1544   1.262       .  A
N1535      O1541   1.262       .  A
N1535      O1542   1.262       .  A
C1545      C1546   1.407       .  A
C1545      C1550   1.408       .  A
C1545      H1555   1.084       .  S
C1546      C1551   1.488       .  S
C1546      C1547   1.408       .  A
C1547      C1548   1.399       .  A
C1547      N1552   1.431       .  S
C1548      C1549   1.408       .  A
C1548      H1553   1.084       .  S
C1549      C1550   1.412       .  A
C1550      N1554   1.428       .  S
C1551      C1556   1.404       .  A
C1551      C1560   1.391       .  A
N1552      O1567   1.262       .  A
N1552      O1568   1.262       .  A
N1554      O1565   1.262       .  A
N1554      O1566   1.262       .  A
C1556      C1557   1.407       .  A
C1556      N1561   1.429       .  S
C1557      C1558   1.421       .  A
C1557      H1562   1.079       .  S
C1558      C1559   1.437       .  A
C1559      C1560   1.401       .  A
C1559      N1563   1.428       .  S
C1560      H1564   1.085       .  S
N1561      O1571   1.262       .  A
N1561      O1572   1.262       .  A
N1563      O1569   1.262       .  A
N1563      O1570   1.263       .  A
C1573      C1574   1.401       .  A
C1573      C1578   1.395   1_554  A
C1573      H1583   1.084       .  S
C1574      C1579   1.469       .  S
C1574      C1575   1.405       .  A
C1575      C1576   1.396   1_554  A
C1575      N1580   1.428       .  S
C1576      C1577   1.403       .  A
C1576      H1581   1.084       .  S
C1577      C1578   1.410       .  A
C1578      N1582   1.430       .  S
C1579      C1584   1.406       .  A
C1579      C1588   1.399       .  A
N1580      O1595   1.262       .  A
N1580      O1596   1.262   1_554  A
N1582      O1593   1.262       .  A
N1582      O1594   1.262       .  A
C1584      C1585   1.393       .  A
C1584      N1589   1.430   1_554  S
C1585      C1586   1.404       .  A
C1585      H1590   1.084       .  S
C1586      C1587   1.416       .  A
C1587      C1588   1.399       .  A
C1587      N1591   1.429       .  S
C1588      H1592   1.084       .  S
N1589      O1599   1.262       .  A
N1589      O1600   1.262       .  A
N1591      O1597   1.262       .  A
N1591      O1598   1.262       .  A
C1601      C1602   1.402       .  A
C1601      C1606   1.403       .  A
C1601      H1611   1.084       .  S
C1602      C1607   1.483       .  S
C1602      C1603   1.404       .  A
C1603      C1604   1.403       .  A
C1603      N1608   1.429       .  S
C1604      C1605   1.410       .  A
C1604      H1609   1.084       .  S
C1605      C1606   1.415       .  A
C1606      N1610   1.429       .  S
C1607      C1612   1.399       .  A
C1607      C1616   1.396       .  A
N1608      O1623   1.261       .  A
N1608      O1624   1.262       .  A
N1610      O1621   1.262       .  A
N1610      O1622   1.262       .  A
C1612      C1613   1.395       .  A
C1612      N1617   1.430       .  S
C1613      C1614   1.424       .  A
C1613      H1618   1.076       .  S
C1614      C1615   1.437       .  A
C1615      C1616   1.407       .  A
C1615      N1619   1.430       .  S
C1616      H1620   1.084       .  S
N1617      O1627   1.262       .  A
N1617      O1628   1.262       .  A
N1619      O1625   1.262       .  A
N1619      O1626   1.262       .  A
C1629      C1630   1.401       .  A
C1629      C1634   1.406       .  A
C1629      H1639   1.084       .  S
C1630      C1635   1.480       .  S
C1630      C1631   1.409       .  A
C1631      C1632   1.395       .  A
C1631      N1636   1.432       .  S
C1632      C1633   1.405       .  A
C1632      H1637   1.084       .  S
C1633      C1634   1.415       .  A
C1634      N1638   1.427       .  S
C1635      C1640   1.409       .  A
C1635      C1644   1.402       .  A
N1636      O1651   1.262       .  A
N1636      O1652   1.262       .  A
N1638      O1649   1.261       .  A
N1638      O1650   1.261       .  A
C1640      C1641   1.398       .  A
C1640      N1645   1.429       .  S
C1641      C1642   1.400       .  A
C1641      H1646   1.084       .  S
C1642      C1643   1.412       .  A
C1643      C1644   1.402       .  A
C1643      N1647   1.430       .  S
C1644      H1648   1.084       .  S
N1645      O1655   1.262       .  A
N1645      O1656   1.262       .  A
N1647      O1653   1.262       .  A
N1647      O1654   1.262       .  A
C1657      C1658   1.406       .  A
C1657      C1662   1.406       .  A
C1657      H1667   1.083   1_556  S
C1658      C1663   1.501   1_556  S
C1658      C1659   1.413       .  A
C1659      C1660   1.406       .  A
C1659      N1664   1.429       .  S
C1660      C1661   1.407       .  A
C1660      H1665   1.084       .  S
C1661      C1662   1.414       .  A
C1662      N1666   1.429       .  S
C1663      C1668   1.412       .  A
C1663      C1672   1.408       .  A
N1664      O1679   1.262       .  A
N1664      O1680   1.262       .  A
N1666      O1677   1.262       .  A
N1666      O1678   1.262       .  A
C1668      C1669   1.401       .  A
C1668      N1673   1.430       .  S
C1669      C1670   1.407       .  A
C1669      H1674   1.084       .  S
C1670      C1671   1.415       .  A
C1671      C1672   1.411       .  A
C1671      N1675   1.428       .  S
C1672      H1676   1.083       .  S
N1673      O1683   1.262       .  A
N1673      O1684   1.262       .  A
N1675      O1681   1.262       .  A
N1675      O1682   1.262       .  A
C1685      C1686   1.401       .  A
C1685      C1690   1.402       .  A
C1685      H1695   1.084       .  S
C1686      C1691   1.474       .  S
C1686      C1687   1.407       .  A
C1687      C1688   1.394       .  A
C1687      N1692   1.429       .  S
C1688      C1689   1.403       .  A
C1688      H1693   1.084       .  S
C1689      C1690   1.416       .  A
C1690      N1694   1.429       .  S
C1691      C1696   1.406       .  A
C1691      C1700   1.400       .  A
N1692      O1707   1.262       .  A
N1692      O1708   1.262       .  A
N1694      O1705   1.262       .  A
N1694      O1706   1.262       .  A
C1696      C1697   1.397       .  A
C1696      N1701   1.429       .  S
C1697      C1698   1.405       .  A
C1697      H1702   1.084       .  S
C1698      C1699   1.415       .  A
C1699      C1700   1.399       .  A
C1699      N1703   1.429       .  S
C1700      H1704   1.084       .  S
N1701      O1711   1.262       .  A
N1701      O1712   1.262       .  A
N1703      O1709   1.262       .  A
N1703      O1710   1.262       .  A
C1713      C1714   1.394       .  A
C1713      C1718   1.404       .  A
C1713      H1723   1.085       .  S
C1714      C1719   1.491       .  S
C1714      C1715   1.403       .  A
C1715      C1716   1.409       .  A
C1715      N1720   1.428       .  S
C1716      C1717   1.419       .  A
C1716      H1721   1.083       .  S
C1717      C1718   1.446       .  A
C1718      N1722   1.437       .  S
C1719      C1724   1.408       .  A
C1719      C1728   1.405       .  A
N1720      O1735   1.262       .  A
N1720      O1736   1.262       .  A
N1722      O1733   1.262       .  A
N1722      O1734   1.260       .  A
C1724      C1725   1.403       .  A
C1724      N1729   1.429       .  S
C1725      C1726   1.409       .  A
C1725      H1730   1.084       .  S
C1726      C1727   1.415       .  A
C1727      C1728   1.410       .  A
C1727      N1731   1.428       .  S
C1728      H1732   1.084       .  S
N1729      O1739   1.262       .  A
N1729      O1740   1.262       .  A
N1731      O1737   1.262       .  A
N1731      O1738   1.262       .  A
C1741      C1742   1.402       .  A
C1741      C1746   1.401       .  A
C1741      H1751   1.084       .  S
C1742      C1747   1.482       .  S
C1742      C1743   1.410       .  A
C1743      C1744   1.399       .  A
C1743      N1748   1.430       .  S
C1744      C1745   1.404       .  A
C1744      H1749   1.084       .  S
C1745      C1746   1.412       .  A
C1746      N1750   1.429       .  S
C1747      C1752   1.411       .  A
C1747      C1756   1.404       .  A
N1748      O1763   1.262       .  A
N1748      O1764   1.262       .  A
N1750      O1761   1.262       .  A
N1750      O1762   1.262       .  A
C1752      C1753   1.396       .  A
C1752      N1757   1.434       .  S
C1753      C1754   1.406       .  A
C1753      H1758   1.084       .  S
C1754      C1755   1.413       .  A
C1755      C1756   1.406       .  A
C1755      N1759   1.428       .  S
C1756      H1760   1.084       .  S
N1757      O1767   1.262       .  A
N1757      O1768   1.262       .  A
N1759      O1765   1.262       .  A
N1759      O1766   1.262       .  A
C1769      C1770   1.399       .  A
C1769      C1774   1.408       .  A
C1769      H1779   1.084       .  S
C1770      C1775   1.491       .  S
C1770      C1771   1.403       .  A
C1771      C1772   1.396       .  A
C1771      N1776   1.430       .  S
C1772      C1773   1.424       .  A
C1772      H1777   1.077       .  S
C1773      C1774   1.436       .  A
C1774      N1778   1.430       .  S
C1775      C1780   1.404       .  A
C1775      C1784   1.397       .  A
N1776      O1791   1.262       .  A
N1776      O1792   1.262       .  A
N1778      O1789   1.262       .  A
N1778      O1790   1.262       .  A
C1780      C1781   1.403       .  A
C1780      N1785   1.430       .  S
C1781      C1782   1.419       .  A
C1781      H1786   1.075       .  S
C1782      C1783   1.435       .  A
C1783      C1784   1.400       .  A
C1783      N1787   1.433       .  S
C1784      H1788   1.083       .  S
N1785      O1795   1.262       .  A
N1785      O1796   1.262       .  A
N1787      O1793   1.260       .  A
N1787      O1794   1.262       .  A
C1797      C1798   1.403       .  A
C1797      C1802   1.415       .  A
C1797      H1807   1.084       .  S
C1798      C1803   1.492       .  S
C1798      C1799   1.399       .  A
C1799      C1800   1.396       .  A
C1799      N1804   1.429       .  S
C1800      C1801   1.422       .  A
C1800      H1805   1.083       .  S
C1801      C1802   1.437       .  A
C1802      N1806   1.435       .  S
C1803      C1808   1.407       .  A
C1803      C1812   1.407       .  A
N1804      O1819   1.262       .  A
N1804      O1820   1.262       .  A
N1806      O1817   1.261       .  A
N1806      O1818   1.262       .  A
C1808      C1809   1.401       .  A
C1808      N1813   1.430       .  S
C1809      C1810   1.410       .  A
C1809      H1814   1.084       .  S
C1810      C1811   1.414       .  A
C1811      C1812   1.409       .  A
C1811      N1815   1.428       .  S
C1812      H1816   1.084       .  S
N1813      O1823   1.262       .  A
N1813      O1824   1.262       .  A
N1815      O1821   1.262       .  A
N1815      O1822   1.262       .  A
C1825      C1826   1.402       .  A
C1825      C1830   1.404       .  A
C1825      H1835   1.084       .  S
C1826      C1831   1.497       .  S
C1826      C1827   1.413       .  A
C1827      C1828   1.410       .  A
C1827      N1832   1.428       .  S
C1828      C1829   1.407       .  A
C1828      H1833   1.083       .  S
C1829      C1830   1.419       .  A
C1830      N1834   1.429       .  S
C1831      C1836   1.411       .  A
C1831      C1840   1.404       .  A
N1832      O1847   1.262       .  A
N1832      O1848   1.262       .  A
N1834      O1845   1.262       .  A
N1834      O1846   1.262       .  A
C1836      C1837   1.408       .  A
C1836      N1841   1.430       .  S
C1837      C1838   1.410       .  A
C1837      H1842   1.083       .  S
C1838      C1839   1.417       .  A
C1839      C1840   1.409       .  A
C1839      N1843   1.428       .  S
C1840      H1844   1.084       .  S
N1841      O1851   1.262       .  A
N1841      O1852   1.262       .  A
N1843      O1849   1.262       .  A
N1843      O1850   1.262       .  A
C1853      C1854   1.401       .  A
C1853      C1858   1.397       .  A
C1853      H1863   1.084       .  S
C1854      C1859   1.474       .  S
C1854      C1855   1.409       .  A
C1855      C1856   1.397       .  A
C1855      N1860   1.431       .  S
C1856      C1857   1.404       .  A
C1856      H1861   1.084       .  S
C1857      C1858   1.413       .  A
C1858      N1862   1.429       .  S
C1859      C1864   1.408       .  A
C1859      C1868   1.401       .  A
N1860      O1875   1.262       .  A
N1860      O1876   1.262       .  A
N1862      O1873   1.262       .  A
N1862      O1874   1.262       .  A
C1864      C1865   1.396       .  A
C1864      N1869   1.431       .  S
C1865      C1866   1.405       .  A
C1865      H1870   1.084       .  S
C1866      C1867   1.412       .  A
C1867      C1868   1.398       .  A
C1867      N1871   1.429       .  S
C1868      H1872   1.084       .  S
N1869      O1879   1.262       .  A
N1869      O1880   1.262       .  A
N1871      O1877   1.262       .  A
N1871      O1878   1.262       .  A
C1881      C1882   1.399       .  A
C1881      C1886   1.403       .  A
C1881      H1891   1.084       .  S
C1882      C1887   1.487       .  S
C1882      C1883   1.410       .  A
C1883      C1884   1.406       .  A
C1883      N1888   1.429       .  S
C1884      C1885   1.407       .  A
C1884      H1889   1.084       .  S
C1885      C1886   1.418       .  A
C1886      N1890   1.428       .  S
C1887      C1892   1.402       .  A
C1887      C1896   1.396       .  A
N1888      O1903   1.262       .  A
N1888      O1904   1.262       .  A
N1890      O1901   1.262       .  A
N1890      O1902   1.262       .  A
C1892      C1893   1.399       .  A
C1892      N1897   1.430       .  S
C1893      C1894   1.424       .  A
C1893      H1898   1.080       .  S
C1894      C1895   1.432       .  A
C1895      C1896   1.409       .  A
C1895      N1899   1.426       .  S
C1896      H1900   1.084       .  S
N1897      O1907   1.262       .  A
N1897      O1908   1.262       .  A
N1899      O1905   1.262       .  A
N1899      O1906   1.263       .  A
C1909      C1910   1.405       .  A
C1909      C1914   1.404       .  A
C1909      H1919   1.084       .  S
C1910      C1915   1.486       .  S
C1910      C1911   1.412       .  A
C1911      C1912   1.400       .  A
C1911      N1916   1.431       .  S
C1912      C1913   1.404       .  A
C1912      H1917   1.084       .  S
C1913      C1914   1.412       .  A
C1914      N1918   1.429       .  S
C1915      C1920   1.413       .  A
C1915      C1924   1.402       .  A
N1916      O1931   1.262       .  A
N1916      O1932   1.262       .  A
N1918      O1929   1.262       .  A
N1918      O1930   1.262       .  A
C1920      C1921   1.406       .  A
C1920      N1925   1.429       .  S
C1921      C1922   1.404       .  A
C1921      H1926   1.084       .  S
C1922      C1923   1.410       .  A
C1923      C1924   1.397       .  A
C1923      N1927   1.429       .  S
C1924      H1928   1.084       .  S
N1925      O1935   1.262       .  A
N1925      O1936   1.262       .  A
N1927      O1933   1.262       .  A
N1927      O1934   1.262       .  A
C1937      C1938   1.394       .  A
C1937      C1942   1.401       .  A
C1937      H1947   1.084       .  S
C1938      C1943   1.493       .  S
C1938      C1939   1.404       .  A
C1939      C1940   1.406       .  A
C1939      N1944   1.428       .  S
C1940      C1941   1.418       .  A
C1940      H1945   1.078       .  S
C1941      C1942   1.444       .  A
C1942      N1946   1.435       .  S
C1943      C1948   1.403       .  A
C1943      C1952   1.399       .  A
N1944      O1959   1.262       .  A
N1944      O1960   1.262       .  A
N1946      O1957   1.261       .  A
N1946      O1958   1.262       .  A
C1948      C1949   1.395       .  A
C1948      N1953   1.431       .  S
C1949      C1950   1.424       .  A
C1949      H1954   1.083       .  S
C1950      C1951   1.437       .  A
C1951      C1952   1.412       .  A
C1951      N1955   1.426       .  S
C1952      H1956   1.084       .  S
N1953      O1963   1.262       .  A
N1953      O1964   1.262       .  A
N1955      O1961   1.261       .  A
N1955      O1962   1.263       .  A
C1965      C1966   1.400       .  A
C1965      C1970   1.409       .  A
C1965      H1975   1.083       .  S
C1966      C1971   1.497       .  S
C1966      C1967   1.402       .  A
C1967      C1968   1.401       .  A
C1967      N1972   1.429       .  S
C1968      C1969   1.418       .  A
C1968      H1973   1.068       .  S
C1969      C1970   1.439       .  A
C1970      N1974   1.431       .  S
C1971      C1976   1.410       .  A
C1971      C1980   1.408       .  A
N1972      O1987   1.262       .  A
N1972      O1988   1.262       .  A
N1974      O1985   1.262       .  A
N1974      O1986   1.262       .  A
C1976      C1977   1.401       .  A
C1976      N1981   1.430       .  S
C1977      C1978   1.408       .  A
C1977      H1982   1.084       .  S
C1978      C1979   1.414       .  A
C1979      C1980   1.411       .  A
C1979      N1983   1.427       .  S
C1980      H1984   1.083       .  S
N1981      O1991   1.262       .  A
N1981      O1992   1.262       .  A
N1983      O1989   1.262       .  A
N1983      O1990   1.262       .  A
C1993      C1994   1.408   1_565  A
C1993      C1998   1.409   1_565  A
C1993      H2003   1.083       .  S
C1994      C1999   1.509   1_545  S
C1994      C1995   1.418       .  A
C1995      C1996   1.406       .  A
C1995      N2000   1.429   1_556  S
C1996      C1997   1.405       .  A
C1996      H2001   1.084       .  S
C1997      C1998   1.417       .  A
C1998      N2002   1.429       .  S
C1999      C2004   1.418   1_556  A
C1999      C2008   1.405   1_556  A
N2000      O2015   1.262       .  A
N2000      O2016   1.261       .  A
N2002      O2013   1.262       .  A
N2002      O2014   1.262   1_545  A
C2004      C2005   1.412       .  A
C2004      N2009   1.429   1_554  S
C2005      C2006   1.406       .  A
C2005      H2010   1.083       .  S
C2006      C2007   1.416       .  A
C2007      C2008   1.403       .  A
C2007      N2011   1.429       .  S
C2008      H2012   1.082   1_565  S
N2009      O2019   1.262       .  A
N2009      O2020   1.262       .  A
N2011      O2017   1.262       .  A
N2011      O2018   1.262       .  A
C2021      C2022   1.400       .  A
C2021      C2026   1.395       .  A
C2021      H2031   1.084       .  S
C2022      C2027   1.468       .  S
C2022      C2023   1.406       .  A
C2023      C2024   1.392       .  A
C2023      N2028   1.430   1_545  S
C2024      C2025   1.403       .  A
C2024      H2029   1.084       .  S
C2025      C2026   1.414       .  A
C2026      N2030   1.429       .  S
C2027      C2032   1.406       .  A
C2027      C2036   1.400   1_545  A
N2028      O2043   1.262       .  A
N2028      O2044   1.262       .  A
N2030      O2041   1.262       .  A
N2030      O2042   1.262       .  A
C2032      C2033   1.391   1_545  A
C2032      N2037   1.429       .  S
C2033      C2034   1.403       .  A
C2033      H2038   1.084   1_565  S
C2034      C2035   1.412       .  A
C2035      C2036   1.395       .  A
C2035      N2039   1.429       .  S
C2036      H2040   1.084       .  S
N2037      O2047   1.262       .  A
N2037      O2048   1.262       .  A
N2039      O2045   1.262       .  A
N2039      O2046   1.262       .  A
C2049      C2050   1.404       .  A
C2049      C2054   1.402       .  A
C2049      H2059   1.083       .  S
C2050      C2055   1.499       .  S
C2050      C2051   1.415       .  A
C2051      C2052   1.410       .  A
C2051      N2056   1.428       .  S
C2052      C2053   1.404       .  A
C2052      H2057   1.084       .  S
C2053      C2054   1.415       .  A
C2054      N2058   1.430       .  S
C2055      C2060   1.406       .  A
C2055      C2064   1.401       .  A
N2056      O2071   1.262       .  A
N2056      O2072   1.262       .  A
N2058      O2069   1.262       .  A
N2058      O2070   1.262       .  A
C2060      C2061   1.400       .  A
C2060      N2065   1.430       .  S
C2061      C2062   1.421       .  A
C2061      H2066   1.083       .  S
C2062      C2063   1.437       .  A
C2063      C2064   1.411       .  A
C2063      N2067   1.428       .  S
C2064      H2068   1.084       .  S
N2065      O2075   1.262       .  A
N2065      O2076   1.262       .  A
N2067      O2073   1.261       .  A
N2067      O2074   1.262       .  A
C2077      C2078   1.401       .  A
C2077      C2082   1.396       .  A
C2077      H2087   1.084       .  S
C2078      C2083   1.488       .  S
C2078      C2079   1.412       .  A
C2079      C2080   1.407       .  A
C2079      N2084   1.429       .  S
C2080      C2081   1.406       .  A
C2080      H2085   1.083       .  S
C2081      C2082   1.415       .  A
C2082      N2086   1.430       .  S
C2083      C2088   1.412       .  A
C2083      C2092   1.403       .  A
N2084      O2099   1.262       .  A
N2084      O2100   1.262       .  A
N2086      O2097   1.262       .  A
N2086      O2098   1.262       .  A
C2088      C2089   1.405       .  A
C2088      N2093   1.430       .  S
C2089      C2090   1.406       .  A
C2089      H2094   1.084       .  S
C2090      C2091   1.414       .  A
C2091      C2092   1.400       .  A
C2091      N2095   1.429       .  S
C2092      H2096   1.084       .  S
N2093      O2103   1.262       .  A
N2093      O2104   1.262       .  A
N2095      O2101   1.262       .  A
N2095      O2102   1.262       .  A
C2105      C2106   1.395       .  A
C2105      C2110   1.405       .  A
C2105      H2115   1.084       .  S
C2106      C2111   1.489       .  S
C2106      C2107   1.405       .  A
C2107      C2108   1.397       .  A
C2107      N2112   1.429       .  S
C2108      C2109   1.421       .  A
C2108      H2113   1.083       .  S
C2109      C2110   1.441       .  A
C2110      N2114   1.432       .  S
C2111      C2116   1.406       .  A
C2111      C2120   1.396       .  A
N2112      O2127   1.262       .  A
N2112      O2128   1.262       .  A
N2114      O2125   1.263       .  A
N2114      O2126   1.260       .  A
C2116      C2117   1.400       .  A
C2116      N2121   1.430       .  S
C2117      C2118   1.419       .  A
C2117      H2122   1.082       .  S
C2118      C2119   1.440       .  A
C2119      C2120   1.404       .  A
C2119      N2123   1.434       .  S
C2120      H2124   1.084       .  S
N2121      O2131   1.262       .  A
N2121      O2132   1.262       .  A
N2123      O2129   1.262       .  A
N2123      O2130   1.260       .  A
C2133      C2134   1.395       .  A
C2133      C2138   1.401       .  A
C2133      H2143   1.083       .  S
C2134      C2139   1.481       .  S
C2134      C2135   1.398       .  A
C2135      C2136   1.401       .  A
C2135      N2140   1.429       .  S
C2136      C2137   1.422       .  A
C2136      H2141   1.073       .  S
C2137      C2138   1.439       .  A
C2138      N2142   1.433       .  S
C2139      C2144   1.404       .  A
C2139      C2148   1.393       .  A
N2140      O2155   1.262       .  A
N2140      O2156   1.262       .  A
N2142      O2153   1.261       .  A
N2142      O2154   1.262       .  A
C2144      C2145   1.406       .  A
C2144      N2149   1.428       .  S
C2145      C2146   1.420       .  A
C2145      H2150   1.079       .  S
C2146      C2147   1.432       .  A
C2147      C2148   1.398       .  A
C2147      N2151   1.429       .  S
C2148      H2152   1.085       .  S
N2149      O2159   1.262       .  A
N2149      O2160   1.262       .  A
N2151      O2157   1.262       .  A
N2151      O2158   1.262       .  A
C2161      C2162   1.398       .  A
C2161      C2166   1.401       .  A
C2161      H2171   1.084       .  S
C2162      C2167   1.491       .  S
C2162      C2163   1.413       .  A
C2163      C2164   1.411       .  A
C2163      N2168   1.428       .  S
C2164      C2165   1.408       .  A
C2164      H2169   1.083       .  S
C2165      C2166   1.420       .  A
C2166      N2170   1.429       .  S
C2167      C2172   1.399       .  A
C2167      C2176   1.398       .  A
N2168      O2183   1.262       .  A
N2168      O2184   1.261       .  A
N2170      O2181   1.262       .  A
N2170      O2182   1.262       .  A
C2172      C2173   1.400       .  A
C2172      N2177   1.429       .  S
C2173      C2174   1.426       .  A
C2173      H2178   1.078       .  S
C2174      C2175   1.435       .  A
C2175      C2176   1.413       .  A
C2175      N2179   1.426       .  S
C2176      H2180   1.084       .  S
N2177      O2187   1.261       .  A
N2177      O2188   1.262       .  A
N2179      O2185   1.261       .  A
N2179      O2186   1.262       .  A
C2189      C2190   1.406       .  A
C2189      C2194   1.406       .  A
C2189      H2199   1.083   1_545  S
C2190      C2195   1.500   1_545  S
C2190      C2191   1.414       .  A
C2191      C2192   1.404       .  A
C2191      N2196   1.429       .  S
C2192      C2193   1.403       .  A
C2192      H2197   1.084       .  S
C2193      C2194   1.414       .  A
C2194      N2198   1.428       .  S
C2195      C2200   1.414       .  A
C2195      C2204   1.404       .  A
N2196      O2211   1.262       .  A
N2196      O2212   1.262       .  A
N2198      O2209   1.262   1_545  A
N2198      O2210   1.261       .  A
C2200      C2201   1.410       .  A
C2200      N2205   1.429       .  S
C2201      C2202   1.407       .  A
C2201      H2206   1.083       .  S
C2202      C2203   1.416       .  A
C2203      C2204   1.402       .  A
C2203      N2207   1.429       .  S
C2204      H2208   1.083   1_565  S
N2205      O2215   1.262       .  A
N2205      O2216   1.262       .  A
N2207      O2213   1.262       .  A
N2207      O2214   1.262       .  A
C2217      C2218   1.402   1_565  A
C2217      C2222   1.400   1_565  A
C2217      H2227   1.083       .  S
C2218      C2223   1.486   1_545  S
C2218      C2219   1.410       .  A
C2219      C2220   1.401       .  A
C2219      N2224   1.429       .  S
C2220      C2221   1.405       .  A
C2220      H2225   1.084       .  S
C2221      C2222   1.413       .  A
C2222      N2226   1.429       .  S
C2223      C2228   1.410       .  A
C2223      C2232   1.404   1_565  A
N2224      O2239   1.262       .  A
N2224      O2240   1.262       .  A
N2226      O2237   1.262   1_545  A
N2226      O2238   1.262       .  A
C2228      C2229   1.400       .  A
C2228      N2233   1.429       .  S
C2229      C2230   1.406       .  A
C2229      H2234   1.084       .  S
C2230      C2231   1.413       .  A
C2231      C2232   1.402   1_565  A
C2231      N2235   1.429   1_565  S
C2232      H2236   1.084       .  S
N2233      O2243   1.262       .  A
N2233      O2244   1.262       .  A
N2235      O2241   1.262       .  A
N2235      O2242   1.262       .  A
C2245      C2246   1.399       .  A
C2245      C2250   1.397       .  A
C2245      H2255   1.085       .  S
C2246      C2251   1.494       .  S
C2246      C2247   1.419       .  A
C2247      C2248   1.411       .  A
C2247      N2252   1.431       .  S
C2248      C2249   1.404       .  A
C2248      H2253   1.084       .  S
C2249      C2250   1.417       .  A
C2250      N2254   1.432       .  S
C2251      C2256   1.400       .  A
C2251      C2260   1.409       .  A
N2252      O2267   1.262       .  A
N2252      O2268   1.262       .  A
N2254      O2265   1.262       .  A
N2254      O2266   1.262       .  A
C2256      C2257   1.398       .  A
C2256      N2261   1.434       .  S
C2257      C2258   1.422       .  A
C2257      H2262   1.010       .  S
C2258      C2259   1.430       .  A
C2259      C2260   1.417       .  A
C2259      N2263   1.435       .  S
C2260      H2264   1.078       .  S
N2261      O2271   1.263       .  A
N2261      O2272   1.261       .  A
N2263      O2269   1.262       .  A
N2263      O2270   1.261       .  A
C2273      C2274   1.406       .  A
C2273      C2278   1.413       .  A
C2273      H2283   1.083       .  S
C2274      C2279   1.496       .  S
C2274      C2275   1.408       .  A
C2275      C2276   1.403       .  A
C2275      N2280   1.429       .  S
C2276      C2277   1.409       .  A
C2276      H2281   1.084       .  S
C2277      C2278   1.416       .  A
C2278      N2282   1.428       .  S
C2279      C2284   1.399       .  A
C2279      C2288   1.399       .  A
N2280      O2295   1.262       .  A
N2280      O2296   1.262       .  A
N2282      O2293   1.262       .  A
N2282      O2294   1.262       .  A
C2284      C2285   1.404       .  A
C2284      N2289   1.429       .  S
C2285      C2286   1.424       .  A
C2285      H2290   1.073       .  S
C2286      C2287   1.438       .  A
C2287      C2288   1.412       .  A
C2287      N2291   1.431       .  S
C2288      H2292   1.084       .  S
N2289      O2299   1.262       .  A
N2289      O2300   1.262       .  A
N2291      O2297   1.259       .  A
N2291      O2298   1.263       .  A
C2301      C2302   1.407       .  A
C2301      C2306   1.400       .  A
C2301      H2311   1.083       .  S
C2302      C2307   1.495       .  S
C2302      C2303   1.415       .  A
C2303      C2304   1.403       .  A
C2303      N2308   1.429       .  S
C2304      C2305   1.401       .  A
C2304      H2309   1.084       .  S
C2305      C2306   1.406       .  A
C2306      N2310   1.429       .  S
C2307      C2312   1.413       .  A
C2307      C2316   1.408       .  A
N2308      O2323   1.262       .  A
N2308      O2324   1.262       .  A
N2310      O2321   1.262       .  A
N2310      O2322   1.262       .  A
C2312      C2313   1.394       .  A
C2312      N2317   1.430       .  S
C2313      C2314   1.403       .  A
C2313      H2318   1.084       .  S
C2314      C2315   1.415       .  A
C2315      C2316   1.409       .  A
C2315      N2319   1.428       .  S
C2316      H2320   1.083       .  S
N2317      O2327   1.262       .  A
N2317      O2328   1.262       .  A
N2319      O2325   1.262       .  A
N2319      O2326   1.262       .  A
C2329      C2330   1.399       .  A
C2329      C2334   1.398       .  A
C2329      H2339   1.084       .  S
C2330      C2335   1.483       .  S
C2330      C2331   1.409   1_545  A
C2331      C2332   1.407       .  A
C2331      N2336   1.427       .  S
C2332      C2333   1.406       .  A
C2332      H2337   1.083       .  S
C2333      C2334   1.417   1_565  A
C2334      N2338   1.430       .  S
C2335      C2340   1.409       .  A
C2335      C2344   1.401       .  A
N2336      O2351   1.262       .  A
N2336      O2352   1.262       .  A
N2338      O2349   1.262       .  A
N2338      O2350   1.262       .  A
C2340      C2341   1.403       .  A
C2340      N2345   1.429       .  S
C2341      C2342   1.406       .  A
C2341      H2346   1.084       .  S
C2342      C2343   1.414       .  A
C2343      C2344   1.402       .  A
C2343      N2347   1.429       .  S
C2344      H2348   1.084   1_545  S
N2345      O2355   1.262       .  A
N2345      O2356   1.262       .  A
N2347      O2353   1.262       .  A
N2347      O2354   1.262       .  A
C2357      C2358   1.399       .  A
C2357      C2362   1.400       .  A
C2357      H2367   1.084       .  S
C2358      C2363   1.472       .  S
C2358      C2359   1.406       .  A
C2359      C2360   1.397       .  A
C2359      N2364   1.429       .  S
C2360      C2361   1.405       .  A
C2360      H2365   1.084       .  S
C2361      C2362   1.415       .  A
C2362      N2366   1.429       .  S
C2363      C2368   1.404       .  A
C2363      C2372   1.402       .  A
N2364      O2379   1.262       .  A
N2364      O2380   1.262       .  A
N2366      O2377   1.262       .  A
N2366      O2378   1.262       .  A
C2368      C2369   1.395       .  A
C2368      N2373   1.429       .  S
C2369      C2370   1.405       .  A
C2369      H2374   1.084       .  S
C2370      C2371   1.413       .  A
C2371      C2372   1.400       .  A
C2371      N2375   1.429       .  S
C2372      H2376   1.084       .  S
N2373      O2383   1.262       .  A
N2373      O2384   1.262       .  A
N2375      O2381   1.262       .  A
N2375      O2382   1.262       .  A
C2385      C2386   1.408       .  A
C2385      C2390   1.405       .  A
C2385      H2395   1.083       .  S
C2386      C2391   1.491       .  S
C2386      C2387   1.409       .  A
C2387      C2388   1.399       .  A
C2387      N2392   1.429       .  S
C2388      C2389   1.406       .  A
C2388      H2393   1.084       .  S
C2389      C2390   1.410       .  A
C2390      N2394   1.428       .  S
C2391      C2396   1.402       .  A
C2391      C2400   1.403       .  A
N2392      O2407   1.262       .  A
N2392      O2408   1.262       .  A
N2394      O2405   1.262       .  A
N2394      O2406   1.262       .  A
C2396      C2397   1.392       .  A
C2396      N2401   1.430       .  S
C2397      C2398   1.420       .  A
C2397      H2402   1.082       .  S
C2398      C2399   1.437       .  A
C2399      C2400   1.411       .  A
C2399      N2403   1.436       .  S
C2400      H2404   1.083       .  S
N2401      O2411   1.262       .  A
N2401      O2412   1.262       .  A
N2403      O2409   1.260       .  A
N2403      O2410   1.262       .  A
C2413      C2414   1.402       .  A
C2413      C2418   1.401       .  A
C2413      H2423   1.084       .  S
C2414      C2419   1.479       .  S
C2414      C2415   1.409       .  A
C2415      C2416   1.400       .  A
C2415      N2420   1.429       .  S
C2416      C2417   1.404       .  A
C2416      H2421   1.084       .  S
C2417      C2418   1.413       .  A
C2418      N2422   1.429       .  S
C2419      C2424   1.408       .  A
C2419      C2428   1.400       .  A
N2420      O2435   1.262       .  A
N2420      O2436   1.262       .  A
N2422      O2433   1.262       .  A
N2422      O2434   1.262       .  A
C2424      C2425   1.404       .  A
C2424      N2429   1.428       .  S
C2425      C2426   1.406       .  A
C2425      H2430   1.084       .  S
C2426      C2427   1.414       .  A
C2427      C2428   1.395       .  A
C2427      N2431   1.430       .  S
C2428      H2432   1.084       .  S
N2429      O2439   1.262       .  A
N2429      O2440   1.262       .  A
N2431      O2437   1.262       .  A
N2431      O2438   1.262       .  A
C2441      C2442   1.402       .  A
C2441      C2446   1.404       .  A
C2441      H2451   1.084       .  S
C2442      C2447   1.488       .  S
C2442      C2443   1.408       .  A
C2443      C2444   1.405       .  A
C2443      N2448   1.428       .  S
C2444      C2445   1.406       .  A
C2444      H2449   1.084       .  S
C2445      C2446   1.416       .  A
C2446      N2450   1.429       .  S
C2447      C2452   1.406       .  A
C2447      C2456   1.405       .  A
N2448      O2463   1.262       .  A
N2448      O2464   1.262       .  A
N2450      O2461   1.262       .  A
N2450      O2462   1.262       .  A
C2452      C2453   1.397       .  A
C2452      N2457   1.429       .  S
C2453      C2454   1.408       .  A
C2453      H2458   1.084       .  S
C2454      C2455   1.415       .  A
C2455      C2456   1.412       .  A
C2455      N2459   1.428       .  S
C2456      H2460   1.083       .  S
N2457      O2467   1.262       .  A
N2457      O2468   1.262       .  A
N2459      O2465   1.262       .  A
N2459      O2466   1.262       .  A
C2469      C2470   1.401       .  A
C2469      C2474   1.403       .  A
C2469      H2479   1.084       .  S
C2470      C2475   1.476       .  S
C2470      C2471   1.406       .  A
C2471      C2472   1.396       .  A
C2471      N2476   1.429       .  S
C2472      C2473   1.404       .  A
C2472      H2477   1.084       .  S
C2473      C2474   1.415       .  A
C2474      N2478   1.429       .  S
C2475      C2480   1.405       .  A
C2475      C2484   1.400       .  A
N2476      O2491   1.262       .  A
N2476      O2492   1.262       .  A
N2478      O2489   1.262       .  A
N2478      O2490   1.262       .  A
C2480      C2481   1.401       .  A
C2480      N2485   1.428       .  S
C2481      C2482   1.407       .  A
C2481      H2486   1.084       .  S
C2482      C2483   1.413       .  A
C2483      C2484   1.399       .  A
C2483      N2487   1.428       .  S
C2484      H2488   1.084       .  S
N2485      O2495   1.262       .  A
N2485      O2496   1.262       .  A
N2487      O2493   1.262       .  A
N2487      O2494   1.262       .  A
C2497      C2498   1.403       .  A
C2497      C2502   1.406       .  A
C2497      H2507   1.084       .  S
C2498      C2503   1.484       .  S
C2498      C2499   1.405       .  A
C2499      C2500   1.402       .  A
C2499      N2504   1.428       .  S
C2500      C2501   1.407       .  A
C2500      H2505   1.084       .  S
C2501      C2502   1.415       .  A
C2502      N2506   1.429       .  S
C2503      C2508   1.401       .  A
C2503      C2512   1.397       .  A
N2504      O2519   1.262       .  A
N2504      O2520   1.262       .  A
N2506      O2517   1.262       .  A
N2506      O2518   1.262       .  A
C2508      C2509   1.398       .  A
C2508      N2513   1.429       .  S
C2509      C2510   1.418       .  A
C2509      H2514   1.076       .  S
C2510      C2511   1.436       .  A
C2511      C2512   1.407       .  A
C2511      N2515   1.433       .  S
C2512      H2516   1.084       .  S
N2513      O2523   1.262       .  A
N2513      O2524   1.261       .  A
N2515      O2521   1.262       .  A
N2515      O2522   1.261       .  A
C2525      C2526   1.403       .  A
C2525      C2530   1.399       .  A
C2525      H2535   1.084       .  S
C2526      C2531   1.484       .  S
C2526      C2527   1.408       .  A
C2527      C2528   1.402       .  A
C2527      N2532   1.429       .  S
C2528      C2529   1.406       .  A
C2528      H2533   1.084       .  S
C2529      C2530   1.412       .  A
C2530      N2534   1.429       .  S
C2531      C2536   1.407       .  A
C2531      C2540   1.406       .  A
N2532      O2547   1.262       .  A
N2532      O2548   1.262       .  A
N2534      O2545   1.262       .  A
N2534      O2546   1.262       .  A
C2536      C2537   1.393       .  A
C2536      N2541   1.430       .  S
C2537      C2538   1.405       .  A
C2537      H2542   1.083       .  S
C2538      C2539   1.414       .  A
C2539      C2540   1.409       .  A
C2539      N2543   1.428       .  S
C2540      H2544   1.084       .  S
N2541      O2551   1.262       .  A
N2541      O2552   1.262       .  A
N2543      O2549   1.262       .  A
N2543      O2550   1.262       .  A
C2553      C2554   1.395       .  A
C2553      C2558   1.399       .  A
C2553      H2563   1.084       .  S
C2554      C2559   1.493       .  S
C2554      C2555   1.410       .  A
C2555      C2556   1.411       .  A
C2555      N2560   1.429       .  S
C2556      C2557   1.420       .  A
C2556      H2561   1.080       .  S
C2557      C2558   1.432       .  A
C2558      N2562   1.427       .  S
C2559      C2564   1.408       .  A
C2559      C2568   1.399       .  A
N2560      O2575   1.262       .  A
N2560      O2576   1.262       .  A
N2562      O2573   1.262       .  A
N2562      O2574   1.263       .  A
C2564      C2565   1.392       .  A
C2564      N2569   1.428       .  S
C2565      C2566   1.417       .  A
C2565      H2570   1.079       .  S
C2566      C2567   1.434       .  A
C2567      C2568   1.410       .  A
C2567      N2571   1.427       .  S
C2568      H2572   1.083       .  S
N2569      O2579   1.262       .  A
N2569      O2580   1.262       .  A
N2571      O2577   1.262       .  A
N2571      O2578   1.262       .  A
C2581      C2582   1.407       .  A
C2581      C2586   1.406       .  A
C2581      H2591   1.083       .  S
C2582      C2587   1.506       .  S
C2582      C2583   1.414       .  A
C2583      C2584   1.410       .  A
C2583      N2588   1.429       .  S
C2584      C2585   1.409       .  A
C2584      H2589   1.084       .  S
C2585      C2586   1.413       .  A
C2586      N2590   1.428       .  S
C2587      C2592   1.406       .  A
C2587      C2596   1.406       .  A
N2588      O2603   1.262       .  A
N2588      O2604   1.262       .  A
N2590      O2601   1.262       .  A
N2590      O2602   1.262       .  A
C2592      C2593   1.401       .  A
C2592      N2597   1.430       .  S
C2593      C2594   1.421       .  A
C2593      H2598   1.075       .  S
C2594      C2595   1.431       .  A
C2595      C2596   1.416       .  A
C2595      N2599   1.432       .  S
C2596      H2600   1.083       .  S
N2597      O2607   1.262       .  A
N2597      O2608   1.261       .  A
N2599      O2605   1.261       .  A
N2599      O2606   1.262       .  A
C2609      C2610   1.398       .  A
C2609      C2614   1.407       .  A
C2609      H2619   1.084       .  S
C2610      C2615   1.489       .  S
C2610      C2611   1.404       .  A
C2611      C2612   1.397       .  A
C2611      N2616   1.430       .  S
C2612      C2613   1.419       .  A
C2612      H2617   1.077       .  S
C2613      C2614   1.433       .  A
C2614      N2618   1.429       .  S
C2615      C2620   1.405       .  A
C2615      C2624   1.399       .  A
N2616      O2631   1.262       .  A
N2616      O2632   1.262       .  A
N2618      O2629   1.262       .  A
N2618      O2630   1.262       .  A
C2620      C2621   1.401       .  A
C2620      N2625   1.429       .  S
C2621      C2622   1.420       .  A
C2621      H2626   1.079       .  S
C2622      C2623   1.431       .  A
C2623      C2624   1.402       .  A
C2623      N2627   1.430       .  S
C2624      H2628   1.084       .  S
N2625      O2635   1.262       .  A
N2625      O2636   1.262       .  A
N2627      O2633   1.262       .  A
N2627      O2634   1.262       .  A
C2637      C2638   1.398       .  A
C2637      C2642   1.408       .  A
C2637      H2647   1.084       .  S
C2638      C2643   1.493       .  S
C2638      C2639   1.403       .  A
C2639      C2640   1.402       .  A
C2639      N2644   1.430       .  S
C2640      C2641   1.422       .  A
C2640      H2645   1.083       .  S
C2641      C2642   1.441       .  A
C2642      N2646   1.433       .  S
C2643      C2648   1.411       .  A
C2643      C2652   1.405       .  A
N2644      O2659   1.262       .  A
N2644      O2660   1.262       .  A
N2646      O2657   1.260       .  A
N2646      O2658   1.262       .  A
C2648      C2649   1.406       .  A
C2648      N2653   1.430       .  S
C2649      C2650   1.408       .  A
C2649      H2654   1.084       .  S
C2650      C2651   1.414       .  A
C2651      C2652   1.405       .  A
C2651      N2655   1.429       .  S
C2652      H2656   1.084       .  S
N2653      O2663   1.262       .  A
N2653      O2664   1.262       .  A
N2655      O2661   1.262       .  A
N2655      O2662   1.262       .  A
C2665      C2666   1.408       .  A
C2665      C2670   1.411       .  A
C2665      H2675   1.078       .  S
C2666      C2671   1.519       .  S
C2666      C2667   1.417       .  A
C2667      C2668   1.401       .  A
C2667      N2672   1.433       .  S
C2668      C2669   1.414       .  A
C2668      H2673   1.076       .  S
C2669      C2670   1.432       .  A
C2670      N2674   1.436       .  S
C2671      C2676   1.419       .  A
C2671      C2680   1.403       .  A
N2672      O2687   1.263       .  A
N2672      O2688   1.262       .  A
N2674      O2685   1.263       .  A
N2674      O2686   1.261       .  A
C2676      C2677   1.411       .  A
C2676      N2681   1.430       .  S
C2677      C2678   1.419       .  A
C2677      H2682   1.080       .  S
C2678      C2679   1.429       .  A
C2679      C2680   1.399       .  A
C2679      N2683   1.428       .  S
C2680      H2684   1.079       .  S
N2681      O2691   1.263       .  A
N2681      O2692   1.262       .  A
N2683      O2689   1.263       .  A
N2683      O2690   1.262       .  A
C2693      C2694   1.404       .  A
C2693      C2698   1.404       .  A
C2693      H2703   1.080       .  S
C2694      C2699   1.507       .  S
C2694      C2695   1.417       .  A
C2695      C2696   1.400       .  A
C2695      N2700   1.433       .  S
C2696      C2697   1.415       .  A
C2696      H2701   1.079       .  S
C2697      C2698   1.430       .  A
C2698      N2702   1.432       .  S
C2699      C2704   1.414       .  A
C2699      C2708   1.397       .  A
N2700      O2715   1.262       .  A
N2700      O2716   1.262       .  A
N2702      O2713   1.261       .  A
N2702      O2714   1.262       .  A
C2704      C2705   1.406       .  A
C2704      N2709   1.429       .  S
C2705      C2706   1.415       .  A
C2705      H2710   1.075       .  S
C2706      C2707   1.436       .  A
C2707      C2708   1.398       .  A
C2707      N2711   1.427       .  S
C2708      H2712   1.083       .  S
N2709      O2719   1.262       .  A
N2709      O2720   1.262       .  A
N2711      O2717   1.257       .  A
N2711      O2718   1.263       .  A
C2721      C2722   1.402       .  A
C2721      C2726   1.406       .  A
C2721      H2731   1.084       .  S
C2722      C2727   1.492       .  S
C2722      C2723   1.411       .  A
C2723      C2724   1.407       .  A
C2723      N2728   1.428       .  S
C2724      C2725   1.404       .  A
C2724      H2729   1.084       .  S
C2725      C2726   1.417       .  A
C2726      N2730   1.432       .  S
C2727      C2732   1.398       .  A
C2727      C2736   1.399       .  A
N2728      O2743   1.262       .  A
N2728      O2744   1.261       .  A
N2730      O2741   1.262       .  A
N2730      O2742   1.263       .  A
C2732      C2733   1.399       .  A
C2732      N2737   1.431       .  S
C2733      C2734   1.419       .  A
C2733      H2738   1.068       .  S
C2734      C2735   1.440       .  A
C2735      C2736   1.414       .  A
C2735      N2739   1.431       .  S
C2736      H2740   1.084       .  S
N2737      O2747   1.262       .  A
N2737      O2748   1.262       .  A
N2739      O2745   1.262       .  A
N2739      O2746   1.262       .  A
C2749      C2750   1.402       .  A
C2749      C2754   1.402       .  A
C2749      H2759   1.084       .  S
C2750      C2755   1.497       .  S
C2750      C2751   1.414       .  A
C2751      C2752   1.410   1_455  A
C2751      N2756   1.430       .  S
C2752      C2753   1.408   1_655  A
C2752      H2757   1.083       .  S
C2753      C2754   1.417       .  A
C2754      N2758   1.429       .  S
C2755      C2760   1.413   1_545  A
C2755      C2764   1.406       .  A
N2756      O2771   1.262   1_545  A
N2756      O2772   1.262   1_445  A
N2758      O2769   1.262       .  A
N2758      O2770   1.262       .  A
C2760      C2761   1.405       .  A
C2760      N2765   1.432       .  S
C2761      C2762   1.408       .  A
C2761      H2766   1.084       .  S
C2762      C2763   1.414       .  A
C2763      C2764   1.408   1_565  A
C2763      N2767   1.428       .  S
C2764      H2768   1.084       .  S
N2765      O2775   1.262   1_565  A
N2765      O2776   1.262       .  A
N2767      O2773   1.262   1_565  A
N2767      O2774   1.262       .  A
C2777      C2778   1.402       .  A
C2777      C2782   1.400       .  A
C2777      H2787   1.084       .  S
C2778      C2783   1.471       .  S
C2778      C2779   1.405   1_455  A
C2779      C2780   1.393       .  A
C2779      N2784   1.429       .  S
C2780      C2781   1.404       .  A
C2780      H2785   1.084       .  S
C2781      C2782   1.412   1_655  A
C2782      N2786   1.429       .  S
C2783      C2788   1.407       .  A
C2783      C2792   1.399       .  A
N2784      O2799   1.262       .  A
N2784      O2800   1.262       .  A
N2786      O2797   1.262       .  A
N2786      O2798   1.262       .  A
C2788      C2789   1.397       .  A
C2788      N2793   1.430   1_455  S
C2789      C2790   1.405       .  A
C2789      H2794   1.084       .  S
C2790      C2791   1.414       .  A
C2791      C2792   1.398       .  A
C2791      N2795   1.429       .  S
C2792      H2796   1.084       .  S
N2793      O2803   1.262       .  A
N2793      O2804   1.262       .  A
N2795      O2801   1.262       .  A
N2795      O2802   1.262       .  A
C2805      C2806   1.398       .  A
C2805      C2810   1.408       .  A
C2805      H2815   1.084       .  S
C2806      C2811   1.499       .  S
C2806      C2807   1.404       .  A
C2807      C2808   1.404       .  A
C2807      N2812   1.428       .  S
C2808      C2809   1.418       .  A
C2808      H2813   1.078       .  S
C2809      C2810   1.444       .  A
C2810      N2814   1.436       .  S
C2811      C2816   1.414       .  A
C2811      C2820   1.404       .  A
N2812      O2827   1.262       .  A
N2812      O2828   1.262       .  A
N2814      O2825   1.262       .  A
N2814      O2826   1.263       .  A
C2816      C2817   1.407       .  A
C2816      N2821   1.429       .  S
C2817      C2818   1.405       .  A
C2817      H2822   1.084       .  S
C2818      C2819   1.416       .  A
C2819      C2820   1.406       .  A
C2819      N2823   1.429       .  S
C2820      H2824   1.084       .  S
N2821      O2831   1.262       .  A
N2821      O2832   1.262       .  A
N2823      O2829   1.262       .  A
N2823      O2830   1.262       .  A
C2833      C2834   1.406       .  A
C2833      C2838   1.403       .  A
C2833      H2843   1.083       .  S
C2834      C2839   1.498       .  S
C2834      C2835   1.413       .  A
C2835      C2836   1.404       .  A
C2835      N2840   1.429       .  S
C2836      C2837   1.406       .  A
C2836      H2841   1.084       .  S
C2837      C2838   1.414       .  A
C2838      N2842   1.429       .  S
C2839      C2844   1.412       .  A
C2839      C2848   1.409       .  A
N2840      O2855   1.262       .  A
N2840      O2856   1.262       .  A
N2842      O2853   1.262       .  A
N2842      O2854   1.262       .  A
C2844      C2845   1.398       .  A
C2844      N2849   1.430       .  S
C2845      C2846   1.406       .  A
C2845      H2850   1.084       .  S
C2846      C2847   1.414       .  A
C2847      C2848   1.410       .  A
C2847      N2851   1.428       .  S
C2848      H2852   1.083       .  S
N2849      O2859   1.262       .  A
N2849      O2860   1.262       .  A
N2851      O2857   1.262       .  A
N2851      O2858   1.262       .  A
C2861      C2862   1.402       .  A
C2861      C2866   1.403       .  A
C2861      H2871   1.084       .  S
C2862      C2867   1.498       .  S
C2862      C2863   1.416       .  A
C2863      C2864   1.410       .  A
C2863      N2868   1.430       .  S
C2864      C2865   1.406       .  A
C2864      H2869   1.083       .  S
C2865      C2866   1.417       .  A
C2866      N2870   1.429       .  S
C2867      C2872   1.406       .  A
C2867      C2876   1.401       .  A
N2868      O2883   1.262       .  A
N2868      O2884   1.262       .  A
N2870      O2881   1.262       .  A
N2870      O2882   1.262       .  A
C2872      C2873   1.402       .  A
C2872      N2877   1.430       .  S
C2873      C2874   1.420       .  A
C2873      H2878   1.083       .  S
C2874      C2875   1.437       .  A
C2875      C2876   1.411       .  A
C2875      N2879   1.431       .  S
C2876      H2880   1.084       .  S
N2877      O2887   1.262       .  A
N2877      O2888   1.262       .  A
N2879      O2885   1.262       .  A
N2879      O2886   1.261       .  A
C2889      C2890   1.403   1_455  A
C2889      C2894   1.399   1_455  A
C2889      H2899   1.084       .  S
C2890      C2895   1.503   1_655  S
C2890      C2891   1.418       .  A
C2891      C2892   1.413       .  A
C2891      N2896   1.430       .  S
C2892      C2893   1.407       .  A
C2892      H2897   1.083       .  S
C2893      C2894   1.414       .  A
C2894      N2898   1.427   1_655  S
C2895      C2900   1.415       .  A
C2895      C2904   1.408       .  A
N2896      O2911   1.262       .  A
N2896      O2912   1.262       .  A
N2898      O2909   1.261       .  A
N2898      O2910   1.262       .  A
C2900      C2901   1.408       .  A
C2900      N2905   1.431   1_455  S
C2901      C2902   1.409       .  A
C2901      H2906   1.084       .  S
C2902      C2903   1.413       .  A
C2903      C2904   1.406       .  A
C2903      N2907   1.428       .  S
C2904      H2908   1.084       .  S
N2905      O2915   1.262       .  A
N2905      O2916   1.262       .  A
N2907      O2913   1.262       .  A
N2907      O2914   1.261       .  A
C2917      C2918   1.397       .  A
C2917      C2922   1.393       .  A
C2917      H2927   1.084   1_655  S
C2918      C2923   1.464       .  S
C2918      C2919   1.403       .  A
C2919      C2920   1.396       .  A
C2919      N2924   1.428       .  S
C2920      C2921   1.406       .  A
C2920      H2925   1.084       .  S
C2921      C2922   1.411       .  A
C2922      N2926   1.427       .  S
C2923      C2928   1.407       .  A
C2923      C2932   1.397       .  A
N2924      O2939   1.262       .  A
N2924      O2940   1.262       .  A
N2926      O2937   1.262   1_655  A
N2926      O2938   1.262       .  A
C2928      C2929   1.394       .  A
C2928      N2933   1.431       .  S
C2929      C2930   1.403   1_655  A
C2929      H2934   1.084       .  S
C2930      C2931   1.414       .  A
C2931      C2932   1.398   1_455  A
C2931      N2935   1.429       .  S
C2932      H2936   1.084       .  S
N2933      O2943   1.262       .  A
N2933      O2944   1.262       .  A
N2935      O2941   1.262       .  A
N2935      O2942   1.262       .  A
C2945      C2946   1.402       .  A
C2945      C2950   1.401       .  A
C2945      H2955   1.083       .  S
C2946      C2951   1.500       .  S
C2946      C2947   1.417       .  A
C2947      C2948   1.409       .  A
C2947      N2952   1.430       .  S
C2948      C2949   1.406       .  A
C2948      H2953   1.083       .  S
C2949      C2950   1.419       .  A
C2950      N2954   1.430       .  S
C2951      C2956   1.410       .  A
C2951      C2960   1.398       .  A
N2952      O2967   1.262       .  A
N2952      O2968   1.262       .  A
N2954      O2965   1.262       .  A
N2954      O2966   1.262       .  A
C2956      C2957   1.405       .  A
C2956      N2961   1.429       .  S
C2957      C2958   1.417       .  A
C2957      H2962   1.078       .  S
C2958      C2959   1.437       .  A
C2959      C2960   1.403       .  A
C2959      N2963   1.432       .  S
C2960      H2964   1.083       .  S
N2961      O2971   1.262       .  A
N2961      O2972   1.262       .  A
N2963      O2969   1.262       .  A
N2963      O2970   1.261       .  A
C2973      C2974   1.404       .  A
C2973      C2978   1.400       .  A
C2973      H2983   1.083       .  S
C2974      C2979   1.488       .  S
C2974      C2975   1.411       .  A
C2975      C2976   1.402       .  A
C2975      N2980   1.430       .  S
C2976      C2977   1.403       .  A
C2976      H2981   1.084       .  S
C2977      C2978   1.412       .  A
C2978      N2982   1.430       .  S
C2979      C2984   1.410       .  A
C2979      C2988   1.405       .  A
N2980      O2995   1.262       .  A
N2980      O2996   1.262       .  A
N2982      O2993   1.262       .  A
N2982      O2994   1.262       .  A
C2984      C2985   1.400       .  A
C2984      N2989   1.428       .  S
C2985      C2986   1.404       .  A
C2985      H2990   1.084       .  S
C2986      C2987   1.414       .  A
C2987      C2988   1.401       .  A
C2987      N2991   1.430       .  S
C2988      H2992   1.084       .  S
N2989      O2999   1.262       .  A
N2989      O3000   1.261       .  A
N2991      O2997   1.262       .  A
N2991      O2998   1.262       .  A
C3001      C3002   1.407       .  A
C3001      C3006   1.406       .  A
C3001      H3011   1.083       .  S
C3002      C3007   1.502   1_554  S
C3002      C3003   1.414   1_554  A
C3003      C3004   1.405   1_556  A
C3003      N3008   1.429       .  S
C3004      C3005   1.407       .  A
C3004      H3009   1.084       .  S
C3005      C3006   1.414       .  A
C3006      N3010   1.428       .  S
C3007      C3012   1.414   1_655  A
C3007      C3016   1.407       .  A
N3008      O3023   1.262       .  A
N3008      O3024   1.262       .  A
N3010      O3021   1.262       .  A
N3010      O3022   1.262       .  A
C3012      C3013   1.402       .  A
C3012      N3017   1.430   1_556  S
C3013      C3014   1.406       .  A
C3013      H3018   1.084       .  S
C3014      C3015   1.415   1_455  A
C3015      C3016   1.408       .  A
C3015      N3019   1.428       .  S
C3016      H3020   1.083       .  S
N3017      O3027   1.262       .  A
N3017      O3028   1.262   1_455  A
N3019      O3025   1.262       .  A
N3019      O3026   1.262       .  A
C3029      C3030   1.400       .  A
C3029      C3034   1.398       .  A
C3029      H3039   1.084       .  S
C3030      C3035   1.471       .  S
C3030      C3031   1.406       .  A
C3031      C3032   1.393       .  A
C3031      N3036   1.429       .  S
C3032      C3033   1.404       .  A
C3032      H3037   1.084       .  S
C3033      C3034   1.415       .  A
C3034      N3038   1.429       .  S
C3035      C3040   1.407       .  A
C3035      C3044   1.401       .  A
N3036      O3051   1.262   1_554  A
N3036      O3052   1.262   1_554  A
N3038      O3049   1.262       .  A
N3038      O3050   1.262       .  A
C3040      C3041   1.393       .  A
C3040      N3045   1.430       .  S
C3041      C3042   1.403   1_554  A
C3041      H3046   1.084       .  S
C3042      C3043   1.411   1_556  A
C3043      C3044   1.398       .  A
C3043      N3047   1.429   1_554  S
C3044      H3048   1.084       .  S
N3045      O3055   1.262       .  A
N3045      O3056   1.262       .  A
N3047      O3053   1.262   1_556  A
N3047      O3054   1.262       .  A
C3057      C3058   1.408       .  A
C3057      C3062   1.410       .  A
C3057      H3067   1.083       .  S
C3058      C3063   1.500   1_655  S
C3058      C3059   1.412       .  A
C3059      C3060   1.402       .  A
C3059      N3064   1.430   1_655  S
C3060      C3061   1.407       .  A
C3060      H3065   1.084       .  S
C3061      C3062   1.415       .  A
C3062      N3066   1.429       .  S
C3063      C3068   1.413   1_455  A
C3063      C3072   1.407       .  A
N3064      O3079   1.262       .  A
N3064      O3080   1.262       .  A
N3066      O3077   1.262       .  A
N3066      O3078   1.262       .  A
C3068      C3069   1.405   1_655  A
C3068      N3073   1.429       .  S
C3069      C3070   1.405       .  A
C3069      H3074   1.084       .  S
C3070      C3071   1.413       .  A
C3071      C3072   1.406       .  A
C3071      N3075   1.429       .  S
C3072      H3076   1.083       .  S
N3073      O3083   1.262       .  A
N3073      O3084   1.262       .  A
N3075      O3081   1.262       .  A
N3075      O3082   1.262       .  A
C3085      C3086   1.410       .  A
C3085      C3090   1.412       .  A
C3085      H3095   1.083       .  S
C3086      C3091   1.499       .  S
C3086      C3087   1.412       .  A
C3087      C3088   1.397       .  A
C3087      N3092   1.429       .  S
C3088      C3089   1.403       .  A
C3088      H3093   1.083       .  S
C3089      C3090   1.411       .  A
C3090      N3094   1.428       .  S
C3091      C3096   1.404       .  A
C3091      C3100   1.401       .  A
N3092      O3107   1.262       .  A
N3092      O3108   1.262       .  A
N3094      O3105   1.262       .  A
N3094      O3106   1.262       .  A
C3096      C3097   1.405       .  A
C3096      N3101   1.429       .  S
C3097      C3098   1.423       .  A
C3097      H3102   1.076       .  S
C3098      C3099   1.432       .  A
C3099      C3100   1.406       .  A
C3099      N3103   1.432       .  S
C3100      H3104   1.084       .  S
N3101      O3111   1.262       .  A
N3101      O3112   1.261       .  A
N3103      O3109   1.262       .  A
N3103      O3110   1.262       .  A
C3113      C3114   1.403       .  A
C3113      C3118   1.397       .  A
C3113      H3123   1.084       .  S
C3114      C3119   1.489       .  S
C3114      C3115   1.414       .  A
C3115      C3116   1.408       .  A
C3115      N3120   1.429       .  S
C3116      C3117   1.402       .  A
C3116      H3121   1.084       .  S
C3117      C3118   1.408       .  A
C3118      N3122   1.429       .  S
C3119      C3124   1.412       .  A
C3119      C3128   1.404       .  A
N3120      O3135   1.262       .  A
N3120      O3136   1.262       .  A
N3122      O3133   1.262       .  A
N3122      O3134   1.262       .  A
C3124      C3125   1.401       .  A
C3124      N3129   1.429       .  S
C3125      C3126   1.404       .  A
C3125      H3130   1.084       .  S
C3126      C3127   1.416       .  A
C3127      C3128   1.403       .  A
C3127      N3131   1.429       .  S
C3128      H3132   1.083       .  S
N3129      O3139   1.262       .  A
N3129      O3140   1.262       .  A
N3131      O3137   1.262       .  A
N3131      O3138   1.262       .  A
C3141      C3142   1.399       .  A
C3141      C3146   1.404       .  A
C3141      H3151   1.084       .  S
C3142      C3147   1.485       .  S
C3142      C3143   1.401       .  A
C3143      C3144   1.399       .  A
C3143      N3148   1.429       .  S
C3144      C3145   1.420       .  A
C3144      H3149   1.079       .  S
C3145      C3146   1.431       .  A
C3146      N3150   1.431       .  S
C3147      C3152   1.403       .  A
C3147      C3156   1.398       .  A
N3148      O3163   1.262       .  A
N3148      O3164   1.262       .  A
N3150      O3161   1.262       .  A
N3150      O3162   1.262       .  A
C3152      C3153   1.402       .  A
C3152      N3157   1.428       .  S
C3153      C3154   1.417       .  A
C3153      H3158   1.080       .  S
C3154      C3155   1.433       .  A
C3155      C3156   1.401       .  A
C3155      N3159   1.431       .  S
C3156      H3160   1.084       .  S
N3157      O3167   1.262       .  A
N3157      O3168   1.262       .  A
N3159      O3165   1.261       .  A
N3159      O3166   1.261       .  A
C3169      C3170   1.409       .  A
C3169      C3174   1.407       .  A
C3169      H3179   1.084       .  S
C3170      C3175   1.501       .  S
C3170      C3171   1.414       .  A
C3171      C3172   1.407       .  A
C3171      N3176   1.432       .  S
C3172      C3173   1.410       .  A
C3172      H3177   1.084       .  S
C3173      C3174   1.412       .  A
C3174      N3178   1.428       .  S
C3175      C3180   1.413       .  A
C3175      C3184   1.396       .  A
N3176      O3191   1.262       .  A
N3176      O3192   1.262       .  A
N3178      O3189   1.262       .  A
N3178      O3190   1.262       .  A
C3180      C3181   1.412       .  A
C3180      N3185   1.430       .  S
C3181      C3182   1.416       .  A
C3181      H3186   1.080       .  S
C3182      C3183   1.435       .  A
C3183      C3184   1.398       .  A
C3183      N3187   1.431       .  S
C3184      H3188   1.084       .  S
N3185      O3195   1.262       .  A
N3185      O3196   1.262       .  A
N3187      O3193   1.262       .  A
N3187      O3194   1.262       .  A
C3197      C3198   1.407       .  A
C3197      C3202   1.412       .  A
C3197      H3207   1.084       .  S
C3198      C3203   1.503       .  S
C3198      C3199   1.412       .  A
C3199      C3200   1.405       .  A
C3199      N3204   1.429       .  S
C3200      C3201   1.407       .  A
C3200      H3205   1.084       .  S
C3201      C3202   1.418       .  A
C3202      N3206   1.428       .  S
C3203      C3208   1.415       .  A
C3203      C3212   1.403       .  A
N3204      O3219   1.262       .  A
N3204      O3220   1.262       .  A
N3206      O3217   1.262       .  A
N3206      O3218   1.262       .  A
C3208      C3209   1.414       .  A
C3208      N3213   1.429       .  S
C3209      C3210   1.408       .  A
C3209      H3214   1.083       .  S
C3210      C3211   1.418       .  A
C3211      C3212   1.403       .  A
C3211      N3215   1.430       .  S
C3212      H3216   1.083       .  S
N3213      O3223   1.262       .  A
N3213      O3224   1.262       .  A
N3215      O3221   1.262       .  A
N3215      O3222   1.262       .  A
C3225      C3226   1.400       .  A
C3225      C3230   1.399       .  A
C3225      H3235   1.084       .  S
C3226      C3231   1.474       .  S
C3226      C3227   1.405       .  A
C3227      C3228   1.398       .  A
C3227      N3232   1.428       .  S
C3228      C3229   1.406       .  A
C3228      H3233   1.084       .  S
C3229      C3230   1.414       .  A
C3230      N3234   1.429       .  S
C3231      C3236   1.406       .  A
C3231      C3240   1.399       .  A
N3232      O3247   1.262       .  A
N3232      O3248   1.262       .  A
N3234      O3245   1.262       .  A
N3234      O3246   1.262       .  A
C3236      C3237   1.397       .  A
C3236      N3241   1.429       .  S
C3237      C3238   1.403       .  A
C3237      H3242   1.084       .  S
C3238      C3239   1.416       .  A
C3239      C3240   1.400       .  A
C3239      N3243   1.429       .  S
C3240      H3244   1.084       .  S
N3241      O3251   1.262       .  A
N3241      O3252   1.262       .  A
N3243      O3249   1.262       .  A
N3243      O3250   1.262       .  A
C3253      C3254   1.409       .  A
C3253      C3258   1.413       .  A
C3253      H3263   1.083       .  S
C3254      C3259   1.503       .  S
C3254      C3255   1.410       .  A
C3255      C3256   1.403       .  A
C3255      N3260   1.430       .  S
C3256      C3257   1.409       .  A
C3256      H3261   1.084       .  S
C3257      C3258   1.416       .  A
C3258      N3262   1.428       .  S
C3259      C3264   1.412       .  A
C3259      C3268   1.407       .  A
N3260      O3275   1.262       .  A
N3260      O3276   1.262       .  A
N3262      O3273   1.262       .  A
N3262      O3274   1.262       .  A
C3264      C3265   1.409       .  A
C3264      N3269   1.429       .  S
C3265      C3266   1.407       .  A
C3265      H3270   1.084       .  S
C3266      C3267   1.414       .  A
C3267      C3268   1.408       .  A
C3267      N3271   1.429       .  S
C3268      H3272   1.084       .  S
N3269      O3279   1.262       .  A
N3269      O3280   1.262       .  A
N3271      O3277   1.262       .  A
N3271      O3278   1.262       .  A
C3281      C3282   1.400       .  A
C3281      C3286   1.403       .  A
C3281      H3291   1.084       .  S
C3282      C3287   1.497       .  S
C3282      C3283   1.413       .  A
C3283      C3284   1.412       .  A
C3283      N3288   1.428       .  S
C3284      C3285   1.408       .  A
C3284      H3289   1.083       .  S
C3285      C3286   1.421       .  A
C3286      N3290   1.430       .  S
C3287      C3292   1.408       .  A
C3287      C3296   1.396       .  A
N3288      O3303   1.262       .  A
N3288      O3304   1.262       .  A
N3290      O3301   1.262       .  A
N3290      O3302   1.262       .  A
C3292      C3293   1.409       .  A
C3292      N3297   1.428       .  S
C3293      C3294   1.417       .  A
C3293      H3298   1.079       .  S
C3294      C3295   1.438       .  A
C3295      C3296   1.405       .  A
C3295      N3299   1.432       .  S
C3296      H3300   1.084       .  S
N3297      O3307   1.262       .  A
N3297      O3308   1.262       .  A
N3299      O3305   1.262       .  A
N3299      O3306   1.262       .  A
C3309      C3310   1.400       .  A
C3309      C3314   1.402       .  A
C3309      H3319   1.084       .  S
C3310      C3315   1.483       .  S
C3310      C3311   1.410       .  A
C3311      C3312   1.402       .  A
C3311      N3316   1.431       .  S
C3312      C3313   1.404       .  A
C3312      H3317   1.084       .  S
C3313      C3314   1.413       .  A
C3314      N3318   1.426       .  S
C3315      C3320   1.407       .  A
C3315      C3324   1.405       .  A
N3316      O3331   1.262       .  A
N3316      O3332   1.262       .  A
N3318      O3329   1.262       .  A
N3318      O3330   1.262       .  A
C3320      C3321   1.394       .  A
C3320      N3325   1.430       .  S
C3321      C3322   1.405       .  A
C3321      H3326   1.084       .  S
C3322      C3323   1.414       .  A
C3323      C3324   1.409       .  A
C3323      N3327   1.428       .  S
C3324      H3328   1.084       .  S
N3325      O3335   1.262       .  A
N3325      O3336   1.262       .  A
N3327      O3333   1.262       .  A
N3327      O3334   1.262       .  A
C3337      C3338   1.398       .  A
C3337      C3342   1.408       .  A
C3337      H3347   1.084       .  S
C3338      C3343   1.489       .  S
C3338      C3339   1.404       .  A
C3339      C3340   1.398       .  A
C3339      N3344   1.431       .  S
C3340      C3341   1.422       .  A
C3340      H3345   1.084       .  S
C3341      C3342   1.438       .  A
C3342      N3346   1.431       .  S
C3343      C3348   1.406       .  A
C3343      C3352   1.399       .  A
N3344      O3359   1.262       .  A
N3344      O3360   1.262       .  A
N3346      O3357   1.262       .  A
N3346      O3358   1.261       .  A
C3348      C3349   1.397       .  A
C3348      N3353   1.432       .  S
C3349      C3350   1.420       .  A
C3349      H3354   1.078       .  S
C3350      C3351   1.430       .  A
C3351      C3352   1.405       .  A
C3351      N3355   1.431       .  S
C3352      H3356   1.084       .  S
N3353      O3363   1.261       .  A
N3353      O3364   1.262       .  A
N3355      O3361   1.262       .  A
N3355      O3362   1.262       .  A
C3365      C3366   1.406       .  A
C3365      C3370   1.408       .  A
C3365      H3375   1.082       .  S
C3366      C3371   1.505       .  S
C3366      C3367   1.415       .  A
C3367      C3368   1.407       .  A
C3367      N3372   1.430       .  S
C3368      C3369   1.407       .  A
C3368      H3373   1.084       .  S
C3369      C3370   1.414       .  A
C3370      N3374   1.430       .  S
C3371      C3376   1.408       .  A
C3371      C3380   1.402       .  A
N3372      O3387   1.262       .  A
N3372      O3388   1.262       .  A
N3374      O3385   1.262       .  A
N3374      O3386   1.261       .  A
C3376      C3377   1.403       .  A
C3376      N3381   1.430       .  S
C3377      C3378   1.420       .  A
C3377      H3382   1.077       .  S
C3378      C3379   1.436       .  A
C3379      C3380   1.409       .  A
C3379      N3383   1.432       .  S
C3380      H3384   1.083       .  S
N3381      O3391   1.262       .  A
N3381      O3392   1.261       .  A
N3383      O3389   1.262       .  A
N3383      O3390   1.261       .  A
C3393      C3394   1.403   1_545  A
C3393      C3398   1.406       .  A
C3393      H3403   1.084   1_655  S
C3394      C3399   1.497       .  S
C3394      C3395   1.411       .  A
C3395      C3396   1.411   1_565  A
C3395      N3400   1.429       .  S
C3396      C3397   1.410       .  A
C3396      H3401   1.083       .  S
C3397      C3398   1.417       .  A
C3398      N3402   1.428       .  S
C3399      C3404   1.413   1_655  A
C3399      C3408   1.400       .  A
N3400      O3415   1.262       .  A
N3400      O3416   1.262       .  A
N3402      O3413   1.262       .  A
N3402      O3414   1.262       .  A
C3404      C3405   1.414       .  A
C3404      N3409   1.428       .  S
C3405      C3406   1.409       .  A
C3405      H3410   1.083       .  S
C3406      C3407   1.419       .  A
C3407      C3408   1.401   1_455  A
C3407      N3411   1.429       .  S
C3408      H3412   1.084       .  S
N3409      O3419   1.262       .  A
N3409      O3420   1.262   1_455  A
N3411      O3417   1.262       .  A
N3411      O3418   1.262   1_455  A
C3421      C3422   1.402   1_455  A
C3421      C3426   1.402       .  A
C3421      H3431   1.084   1_455  S
C3422      C3427   1.501       .  S
C3422      C3423   1.414   1_655  A
C3423      C3424   1.413       .  A
C3423      N3428   1.428       .  S
C3424      C3425   1.408       .  A
C3424      H3429   1.083       .  S
C3425      C3426   1.419       .  A
C3426      N3430   1.429       .  S
C3427      C3432   1.413       .  A
C3427      C3436   1.406       .  A
N3428      O3443   1.262   1_455  A
N3428      O3444   1.262       .  A
N3430      O3441   1.262       .  A
N3430      O3442   1.262       .  A
C3432      C3433   1.404       .  A
C3432      N3437   1.429   1_655  S
C3433      C3434   1.405       .  A
C3433      H3438   1.084       .  S
C3434      C3435   1.416       .  A
C3435      C3436   1.410       .  A
C3435      N3439   1.428       .  S
C3436      H3440   1.083       .  S
N3437      O3447   1.262       .  A
N3437      O3448   1.262       .  A
N3439      O3445   1.262       .  A
N3439      O3446   1.262       .  A
C3449      C3450   1.402       .  A
C3449      C3454   1.398       .  A
C3449      H3459   1.084       .  S
C3450      C3455   1.474       .  S
C3450      C3451   1.406       .  A
C3451      C3452   1.395       .  A
C3451      N3456   1.429       .  S
C3452      C3453   1.405       .  A
C3452      H3457   1.084       .  S
C3453      C3454   1.413       .  A
C3454      N3458   1.429       .  S
C3455      C3460   1.407       .  A
C3455      C3464   1.402       .  A
N3456      O3471   1.262       .  A
N3456      O3472   1.262       .  A
N3458      O3469   1.262       .  A
N3458      O3470   1.262       .  A
C3460      C3461   1.396       .  A
C3460      N3465   1.429       .  S
C3461      C3462   1.404       .  A
C3461      H3466   1.084       .  S
C3462      C3463   1.410       .  A
C3463      C3464   1.397       .  A
C3463      N3467   1.429       .  S
C3464      H3468   1.084       .  S
N3465      O3475   1.262       .  A
N3465      O3476   1.262       .  A
N3467      O3473   1.262       .  A
N3467      O3474   1.262       .  A
C3477      C3478   1.404       .  A
C3477      C3482   1.404       .  A
C3477      H3487   1.083       .  S
C3478      C3483   1.499       .  S
C3478      C3479   1.415       .  A
C3479      C3480   1.407       .  A
C3479      N3484   1.430       .  S
C3480      C3481   1.405       .  A
C3480      H3485   1.084       .  S
C3481      C3482   1.415       .  A
C3482      N3486   1.429       .  S
C3483      C3488   1.408       .  A
C3483      C3492   1.399       .  A
N3484      O3499   1.262       .  A
N3484      O3500   1.262       .  A
N3486      O3497   1.262       .  A
N3486      O3498   1.262       .  A
C3488      C3489   1.403       .  A
C3488      N3493   1.428       .  S
C3489      C3490   1.419       .  A
C3489      H3494   1.084       .  S
C3490      C3491   1.441       .  A
C3491      C3492   1.409       .  A
C3491      N3495   1.436       .  S
C3492      H3496   1.084       .  S
N3493      O3503   1.262       .  A
N3493      O3504   1.262       .  A
N3495      O3501   1.261       .  A
N3495      O3502   1.263       .  A
C3505      C3506   1.407       .  A
C3505      C3510   1.408       .  A
C3505      H3515   1.083       .  S
C3506      C3511   1.497       .  S
C3506      C3507   1.413       .  A
C3507      C3508   1.401       .  A
C3507      N3512   1.430       .  S
C3508      C3509   1.403       .  A
C3508      H3513   1.084       .  S
C3509      C3510   1.413       .  A
C3510      N3514   1.429       .  S
C3511      C3516   1.413       .  A
C3511      C3520   1.404       .  A
N3512      O3527   1.262       .  A
N3512      O3528   1.262       .  A
N3514      O3525   1.262       .  A
N3514      O3526   1.262       .  A
C3516      C3517   1.409       .  A
C3516      N3521   1.428       .  S
C3517      C3518   1.407       .  A
C3517      H3522   1.083       .  S
C3518      C3519   1.416       .  A
C3519      C3520   1.400       .  A
C3519      N3523   1.429       .  S
C3520      H3524   1.083       .  S
N3521      O3531   1.262       .  A
N3521      O3532   1.262       .  A
N3523      O3529   1.262       .  A
N3523      O3530   1.262       .  A
C3533      C3534   1.389       .  A
C3533      C3538   1.397       .  A
C3533      H3543   1.085       .  S
C3534      C3539   1.483       .  S
C3534      C3535   1.401       .  A
C3535      C3536   1.403       .  A
C3535      N3540   1.429       .  S
C3536      C3537   1.423       .  A
C3536      H3541   1.077       .  S
C3537      C3538   1.438       .  A
C3538      N3542   1.427       .  S
C3539      C3544   1.405       .  A
C3539      C3548   1.397       .  A
N3540      O3555   1.262       .  A
N3540      O3556   1.262       .  A
N3542      O3553   1.262       .  A
N3542      O3554   1.263       .  A
C3544      C3545   1.395       .  A
C3544      N3549   1.430       .  S
C3545      C3546   1.417       .  A
C3545      H3550   1.078       .  S
C3546      C3547   1.434       .  A
C3547      C3548   1.405       .  A
C3547      N3551   1.432       .  S
C3548      H3552   1.084       .  S
N3549      O3559   1.262       .  A
N3549      O3560   1.262       .  A
N3551      O3557   1.262       .  A
N3551      O3558   1.262       .  A
C3561      C3562   1.409       .  A
C3561      C3566   1.409       .  A
C3561      H3571   1.078       .  S
C3562      C3567   1.520       .  S
C3562      C3563   1.417       .  A
C3563      C3564   1.397       .  A
C3563      N3568   1.433       .  S
C3564      C3565   1.415       .  A
C3564      H3569   1.083       .  S
C3565      C3566   1.437       .  A
C3566      N3570   1.434       .  S
C3567      C3572   1.417       .  A
C3567      C3576   1.404       .  A
N3568      O3583   1.263       .  A
N3568      O3584   1.262       .  A
N3570      O3581   1.262       .  A
N3570      O3582   1.260       .  A
C3572      C3573   1.405       .  A
C3572      N3577   1.431       .  S
C3573      C3574   1.421       .  A
C3573      H3578   1.069       .  S
C3574      C3575   1.434       .  A
C3575      C3576   1.400       .  A
C3575      N3579   1.430       .  S
C3576      H3580   1.079       .  S
N3577      O3587   1.263       .  A
N3577      O3588   1.262       .  A
N3579      O3585   1.261       .  A
N3579      O3586   1.261       .  A
C3589      C3590   1.404       .  A
C3589      C3594   1.410       .  A
C3589      H3599   1.084       .  S
C3590      C3595   1.497       .  S
C3590      C3591   1.405       .  A
C3591      C3592   1.402       .  A
C3591      N3596   1.431       .  S
C3592      C3593   1.417       .  A
C3592      H3597   1.079       .  S
C3593      C3594   1.429       .  A
C3594      N3598   1.433       .  S
C3595      C3600   1.416       .  A
C3595      C3604   1.403       .  A
N3596      O3611   1.262       .  A
N3596      O3612   1.262       .  A
N3598      O3609   1.262       .  A
N3598      O3610   1.261       .  A
C3600      C3601   1.407       .  A
C3600      N3605   1.430       .  S
C3601      C3602   1.404       .  A
C3601      H3606   1.084       .  S
C3602      C3603   1.414       .  A
C3603      C3604   1.406       .  A
C3603      N3607   1.428       .  S
C3604      H3608   1.084       .  S
N3605      O3615   1.262       .  A
N3605      O3616   1.262       .  A
N3607      O3613   1.261       .  A
N3607      O3614   1.262       .  A
C3617      C3618   1.405       .  A
C3617      C3622   1.407       .  A
C3617      H3627   1.084       .  S
C3618      C3623   1.494   1_556  S
C3618      C3619   1.409       .  A
C3619      C3620   1.406       .  A
C3619      N3624   1.429   1_556  S
C3620      C3621   1.410       .  A
C3620      H3625   1.084       .  S
C3621      C3622   1.415       .  A
C3622      N3626   1.428       .  S
C3623      C3628   1.408   1_554  A
C3623      C3632   1.408       .  A
N3624      O3639   1.262       .  A
N3624      O3640   1.262       .  A
N3626      O3637   1.262       .  A
N3626      O3638   1.262       .  A
C3628      C3629   1.399   1_556  A
C3628      N3633   1.429       .  S
C3629      C3630   1.406       .  A
C3629      H3634   1.084       .  S
C3630      C3631   1.415       .  A
C3631      C3632   1.414       .  A
C3631      N3635   1.428       .  S
C3632      H3636   1.083       .  S
N3633      O3643   1.262       .  A
N3633      O3644   1.262       .  A
N3635      O3641   1.262       .  A
N3635      O3642   1.262       .  A
C3645      C3646   1.401       .  A
C3645      C3650   1.399       .  A
C3645      H3655   1.084   1_554  S
C3646      C3651   1.469       .  S
C3646      C3647   1.404       .  A
C3647      C3648   1.395       .  A
C3647      N3652   1.428       .  S
C3648      C3649   1.405       .  A
C3648      H3653   1.084       .  S
C3649      C3650   1.412       .  A
C3650      N3654   1.429       .  S
C3651      C3656   1.405       .  A
C3651      C3660   1.399       .  A
N3652      O3667   1.262       .  A
N3652      O3668   1.262       .  A
N3654      O3665   1.262   1_554  A
N3654      O3666   1.262   1_554  A
C3656      C3657   1.396   1_554  A
C3656      N3661   1.429       .  S
C3657      C3658   1.405       .  A
C3657      H3662   1.084       .  S
C3658      C3659   1.413   1_556  A
C3659      C3660   1.398       .  A
C3659      N3663   1.429       .  S
C3660      H3664   1.084       .  S
N3661      O3671   1.262   1_554  A
N3661      O3672   1.262       .  A
N3663      O3669   1.262   1_554  A
N3663      O3670   1.262       .  A
C3673      C3674   1.401       .  A
C3673      C3678   1.405       .  A
C3673      H3683   1.084       .  S
C3674      C3679   1.492       .  S
C3674      C3675   1.411       .  A
C3675      C3676   1.408       .  A
C3675      N3680   1.429       .  S
C3676      C3677   1.406       .  A
C3676      H3681   1.084       .  S
C3677      C3678   1.417       .  A
C3678      N3682   1.429       .  S
C3679      C3684   1.402       .  A
C3679      C3688   1.400       .  A
N3680      O3695   1.262       .  A
N3680      O3696   1.262       .  A
N3682      O3693   1.262       .  A
N3682      O3694   1.262       .  A
C3684      C3685   1.400       .  A
C3684      N3689   1.430       .  S
C3685      C3686   1.422       .  A
C3685      H3690   1.076       .  S
C3686      C3687   1.434       .  A
C3687      C3688   1.412       .  A
C3687      N3691   1.432       .  S
C3688      H3692   1.084       .  S
N3689      O3699   1.262       .  A
N3689      O3700   1.262       .  A
N3691      O3697   1.261       .  A
N3691      O3698   1.262       .  A
C3701      C3702   1.402   1_565  A
C3701      C3706   1.408   1_565  A
C3701      H3711   1.084       .  S
C3702      C3707   1.504   1_545  S
C3702      C3703   1.414       .  A
C3703      C3704   1.412       .  A
C3703      N3708   1.429       .  S
C3704      C3705   1.409       .  A
C3704      H3709   1.083       .  S
C3705      C3706   1.418       .  A
C3706      N3710   1.427   1_545  S
C3707      C3712   1.412       .  A
C3707      C3716   1.407       .  A
N3708      O3723   1.262       .  A
N3708      O3724   1.262       .  A
N3710      O3721   1.261       .  A
N3710      O3722   1.262       .  A
C3712      C3713   1.408       .  A
C3712      N3717   1.430       .  S
C3713      C3714   1.410       .  A
C3713      H3718   1.083       .  S
C3714      C3715   1.416       .  A
C3715      C3716   1.413       .  A
C3715      N3719   1.427       .  S
C3716      H3720   1.084       .  S
N3717      O3727   1.262       .  A
N3717      O3728   1.262   1_565  A
N3719      O3725   1.262       .  A
N3719      O3726   1.262       .  A
C3729      C3730   1.411       .  A
C3729      C3734   1.416       .  A
C3729      H3739   1.083       .  S
C3730      C3735   1.505       .  S
C3730      C3731   1.411       .  A
C3731      C3732   1.403       .  A
C3731      N3736   1.430       .  S
C3732      C3733   1.407       .  A
C3732      H3737   1.084       .  S
C3733      C3734   1.414       .  A
C3734      N3738   1.429       .  S
C3735      C3740   1.406       .  A
C3735      C3744   1.404       .  A
N3736      O3751   1.262       .  A
N3736      O3752   1.262       .  A
N3738      O3749   1.262       .  A
N3738      O3750   1.262       .  A
C3740      C3741   1.408       .  A
C3740      N3745   1.429       .  S
C3741      C3742   1.423       .  A
C3741      H3746   1.079       .  S
C3742      C3743   1.429       .  A
C3743      C3744   1.411       .  A
C3743      N3747   1.430       .  S
C3744      H3748   1.084       .  S
N3745      O3755   1.262       .  A
N3745      O3756   1.262       .  A
N3747      O3753   1.262       .  A
N3747      O3754   1.262       .  A
C3757      C3758   1.407       .  A
C3757      C3762   1.405       .  A
C3757      H3767   1.082       .  S
C3758      C3763   1.497       .  S
C3758      C3759   1.415       .  A
C3759      C3760   1.400       .  A
C3759      N3764   1.431       .  S
C3760      C3761   1.402       .  A
C3760      H3765   1.084       .  S
C3761      C3762   1.412       .  A
C3762      N3766   1.429       .  S
C3763      C3768   1.415       .  A
C3763      C3772   1.405       .  A
N3764      O3779   1.262       .  A
N3764      O3780   1.262       .  A
N3766      O3777   1.262       .  A
N3766      O3778   1.262       .  A
C3768      C3769   1.406       .  A
C3768      N3773   1.429       .  S
C3769      C3770   1.405       .  A
C3769      H3774   1.084       .  S
C3770      C3771   1.414       .  A
C3771      C3772   1.398       .  A
C3771      N3775   1.430       .  S
C3772      H3776   1.083       .  S
N3773      O3783   1.262       .  A
N3773      O3784   1.262       .  A
N3775      O3781   1.262       .  A
N3775      O3782   1.262       .  A
C3785      C3786   1.406   1_556  A
C3785      C3790   1.403       .  A
C3785      H3795   1.084       .  S
C3786      C3791   1.496       .  S
C3786      C3787   1.411       .  A
C3787      C3788   1.407       .  A
C3787      N3792   1.428       .  S
C3788      C3789   1.407   1_554  A
C3788      H3793   1.084       .  S
C3789      C3790   1.412       .  A
C3790      N3794   1.429       .  S
C3791      C3796   1.410       .  A
C3791      C3800   1.408       .  A
N3792      O3807   1.262       .  A
N3792      O3808   1.262       .  A
N3794      O3805   1.262       .  A
N3794      O3806   1.262       .  A
C3796      C3797   1.398       .  A
C3796      N3801   1.431       .  S
C3797      C3798   1.407       .  A
C3797      H3802   1.084       .  S
C3798      C3799   1.415       .  A
C3799      C3800   1.413       .  A
C3799      N3803   1.428       .  S
C3800      H3804   1.083       .  S
N3801      O3811   1.262       .  A
N3801      O3812   1.262       .  A
N3803      O3809   1.262       .  A
N3803      O3810   1.262       .  A
C3813      C3814   1.400       .  A
C3813      C3818   1.402       .  A
C3813      H3823   1.084       .  S
C3814      C3819   1.471       .  S
C3814      C3815   1.406       .  A
C3815      C3816   1.394       .  A
C3815      N3820   1.430       .  S
C3816      C3817   1.404       .  A
C3816      H3821   1.084       .  S
C3817      C3818   1.415       .  A
C3818      N3822   1.429       .  S
C3819      C3824   1.405       .  A
C3819      C3828   1.399       .  A
N3820      O3835   1.262       .  A
N3820      O3836   1.262       .  A
N3822      O3833   1.262       .  A
N3822      O3834   1.262       .  A
C3824      C3825   1.399       .  A
C3824      N3829   1.429       .  S
C3825      C3826   1.407       .  A
C3825      H3830   1.084       .  S
C3826      C3827   1.414       .  A
C3827      C3828   1.397       .  A
C3827      N3831   1.428       .  S
C3828      H3832   1.084       .  S
N3829      O3839   1.262       .  A
N3829      O3840   1.262       .  A
N3831      O3837   1.262       .  A
N3831      O3838   1.262       .  A
C3841      C3842   1.405       .  A
C3841      C3846   1.403       .  A
C3841      H3851   1.084       .  S
C3842      C3847   1.494       .  S
C3842      C3843   1.412       .  A
C3843      C3844   1.406       .  A
C3843      N3848   1.431       .  S
C3844      C3845   1.407       .  A
C3844      H3849   1.084       .  S
C3845      C3846   1.413       .  A
C3846      N3850   1.428       .  S
C3847      C3852   1.410       .  A
C3847      C3856   1.397       .  A
N3848      O3863   1.262       .  A
N3848      O3864   1.262       .  A
N3850      O3861   1.262       .  A
N3850      O3862   1.262       .  A
C3852      C3853   1.406       .  A
C3852      N3857   1.432       .  S
C3853      C3854   1.415       .  A
C3853      H3858   1.076       .  S
C3854      C3855   1.438       .  A
C3855      C3856   1.405       .  A
C3855      N3859   1.435       .  S
C3856      H3860   1.084       .  S
N3857      O3867   1.262       .  A
N3857      O3868   1.262       .  A
N3859      O3865   1.263       .  A
N3859      O3866   1.261       .  A
C3869      C3870   1.409   1_655  A
C3869      C3874   1.411       .  A
C3869      H3879   1.083       .  S
C3870      C3875   1.509       .  S
C3870      C3871   1.416       .  A
C3871      C3872   1.407       .  A
C3871      N3876   1.430       .  S
C3872      C3873   1.406   1_455  A
C3872      H3877   1.084       .  S
C3873      C3874   1.414       .  A
C3874      N3878   1.428       .  S
C3875      C3880   1.415   1_554  A
C3875      C3884   1.409       .  A
N3876      O3891   1.262       .  A
N3876      O3892   1.262       .  A
N3878      O3889   1.262       .  A
N3878      O3890   1.262       .  A
C3880      C3881   1.407       .  A
C3880      N3885   1.429       .  S
C3881      C3882   1.407       .  A
C3881      H3886   1.084       .  S
C3882      C3883   1.414       .  A
C3883      C3884   1.410   1_556  A
C3883      N3887   1.428       .  S
C3884      H3888   1.083       .  S
N3885      O3895   1.262   1_455  A
N3885      O3896   1.262   1_556  A
N3887      O3893   1.262       .  A
N3887      O3894   1.262   1_556  A
C3897      C3898   1.399   1_655  A
C3897      C3902   1.402       .  A
C3897      H3907   1.084       .  S
C3898      C3903   1.476       .  S
C3898      C3899   1.407       .  A
C3899      C3900   1.399       .  A
C3899      N3904   1.429       .  S
C3900      C3901   1.405   1_455  A
C3900      H3905   1.084       .  S
C3901      C3902   1.418       .  A
C3902      N3906   1.429       .  S
C3903      C3908   1.405       .  A
C3903      C3912   1.401       .  A
N3904      O3919   1.262       .  A
N3904      O3920   1.262       .  A
N3906      O3917   1.262       .  A
N3906      O3918   1.262       .  A
C3908      C3909   1.397       .  A
C3908      N3913   1.429   1_455  S
C3909      C3910   1.405       .  A
C3909      H3914   1.084       .  S
C3910      C3911   1.416       .  A
C3911      C3912   1.404       .  A
C3911      N3915   1.429       .  S
C3912      H3916   1.084       .  S
N3913      O3923   1.262       .  A
N3913      O3924   1.262       .  A
N3915      O3921   1.262       .  A
N3915      O3922   1.262       .  A
C3925      C3926   1.408       .  A
C3925      C3930   1.409       .  A
C3925      H3935   1.083       .  S
C3926      C3931   1.491       .  S
C3926      C3927   1.413       .  A
C3927      C3928   1.390       .  A
C3927      N3932   1.431       .  S
C3928      C3929   1.402       .  A
C3928      H3933   1.084       .  S
C3929      C3930   1.414       .  A
C3930      N3934   1.428       .  S
C3931      C3936   1.413       .  A
C3931      C3940   1.405       .  A
N3932      O3947   1.262       .  A
N3932      O3948   1.262       .  A
N3934      O3945   1.262       .  A
N3934      O3946   1.262       .  A
C3936      C3937   1.403       .  A
C3936      N3941   1.428       .  S
C3937      C3938   1.403       .  A
C3937      H3942   1.084       .  S
C3938      C3939   1.408       .  A
C3939      C3940   1.397       .  A
C3939      N3943   1.429       .  S
C3940      H3944   1.084       .  S
N3941      O3951   1.262       .  A
N3941      O3952   1.262       .  A
N3943      O3949   1.262       .  A
N3943      O3950   1.262       .  A
C3953      C3954   1.402       .  A
C3953      C3958   1.404       .  A
C3953      H3963   1.084       .  S
C3954      C3959   1.504       .  S
C3954      C3955   1.416       .  A
C3955      C3956   1.414       .  A
C3955      N3960   1.428       .  S
C3956      C3957   1.407       .  A
C3956      H3961   1.083       .  S
C3957      C3958   1.417       .  A
C3958      N3962   1.429       .  S
C3959      C3964   1.413       .  A
C3959      C3968   1.406       .  A
N3960      O3975   1.262       .  A
N3960      O3976   1.262       .  A
N3962      O3973   1.262       .  A
N3962      O3974   1.262       .  A
C3964      C3965   1.411       .  A
C3964      N3969   1.429       .  S
C3965      C3966   1.410       .  A
C3965      H3970   1.084       .  S
C3966      C3967   1.416       .  A
C3967      C3968   1.410       .  A
C3967      N3971   1.428       .  S
C3968      H3972   1.084       .  S
N3969      O3979   1.262       .  A
N3969      O3980   1.262       .  A
N3971      O3977   1.262       .  A
N3971      O3978   1.262       .  A
C3981      C3982   1.401       .  A
C3981      C3986   1.400       .  A
C3981      H3991   1.084       .  S
C3982      C3987   1.470       .  S
C3982      C3983   1.405       .  A
C3983      C3984   1.395       .  A
C3983      N3988   1.428       .  S
C3984      C3985   1.402       .  A
C3984      H3989   1.084       .  S
C3985      C3986   1.412       .  A
C3986      N3990   1.429       .  S
C3987      C3992   1.404       .  A
C3987      C3996   1.399       .  A
N3988      O4003   1.262       .  A
N3988      O4004   1.261       .  A
N3990      O4001   1.262       .  A
N3990      O4002   1.262       .  A
C3992      C3993   1.399       .  A
C3992      N3997   1.428       .  S
C3993      C3994   1.406       .  A
C3993      H3998   1.084       .  S
C3994      C3995   1.413       .  A
C3995      C3996   1.396       .  A
C3995      N3999   1.429       .  S
C3996      H4000   1.084       .  S
N3997      O4007   1.262       .  A
N3997      O4008   1.262       .  A
N3999      O4005   1.262       .  A
N3999      O4006   1.262       .  A
C4009      C4010   1.402       .  A
C4009      C4014   1.404       .  A
C4009      H4019   1.084       .  S
C4010      C4015   1.498       .  S
C4010      C4011   1.414       .  A
C4011      C4012   1.411       .  A
C4011      N4016   1.431       .  S
C4012      C4013   1.409       .  A
C4012      H4017   1.083       .  S
C4013      C4014   1.415       .  A
C4014      N4018   1.428       .  S
C4015      C4020   1.408       .  A
C4015      C4024   1.400       .  A
N4016      O4031   1.262       .  A
N4016      O4032   1.262       .  A
N4018      O4029   1.261       .  A
N4018      O4030   1.262       .  A
C4020      C4021   1.405       .  A
C4020      N4025   1.431       .  S
C4021      C4022   1.415       .  A
C4021      H4026   1.074       .  S
C4022      C4023   1.437       .  A
C4023      C4024   1.410       .  A
C4023      N4027   1.434       .  S
C4024      H4028   1.084       .  S
N4025      O4035   1.262       .  A
N4025      O4036   1.262       .  A
N4027      O4033   1.263       .  A
N4027      O4034   1.261       .  A
C4037      C4038   1.406       .  A
C4037      C4042   1.413       .  A
C4037      H4047   1.083       .  S
C4038      C4043   1.501       .  S
C4038      C4039   1.410       .  A
C4039      C4040   1.407       .  A
C4039      N4044   1.429       .  S
C4040      C4041   1.409       .  A
C4040      H4045   1.083       .  S
C4041      C4042   1.418       .  A
C4042      N4046   1.428       .  S
C4043      C4048   1.409       .  A
C4043      C4052   1.410       .  A
N4044      O4059   1.262       .  A
N4044      O4060   1.262       .  A
N4046      O4057   1.262       .  A
N4046      O4058   1.262       .  A
C4048      C4049   1.403       .  A
C4048      N4053   1.428       .  S
C4049      C4050   1.407       .  A
C4049      H4054   1.084       .  S
C4050      C4051   1.413       .  A
C4051      C4052   1.414       .  A
C4051      N4055   1.428       .  S
C4052      H4056   1.083       .  S
N4053      O4063   1.262       .  A
N4053      O4064   1.261       .  A
N4055      O4061   1.262       .  A
N4055      O4062   1.262       .  A
C4065      C4066   1.401       .  A
C4065      C4070   1.399       .  A
C4065      H4075   1.084       .  S
C4066      C4071   1.475       .  S
C4066      C4067   1.406       .  A
C4067      C4068   1.397       .  A
C4067      N4072   1.429       .  S
C4068      C4069   1.406       .  A
C4068      H4073   1.084       .  S
C4069      C4070   1.414       .  A
C4070      N4074   1.429       .  S
C4071      C4076   1.406       .  A
C4071      C4080   1.401       .  A
N4072      O4087   1.262       .  A
N4072      O4088   1.262       .  A
N4074      O4085   1.262       .  A
N4074      O4086   1.262       .  A
C4076      C4077   1.396       .  A
C4076      N4081   1.429       .  S
C4077      C4078   1.405       .  A
C4077      H4082   1.084       .  S
C4078      C4079   1.414       .  A
C4079      C4080   1.401       .  A
C4079      N4083   1.428       .  S
C4080      H4084   1.084       .  S
N4081      O4091   1.262       .  A
N4081      O4092   1.262       .  A
N4083      O4089   1.261       .  A
N4083      O4090   1.262       .  A
C4093      C4094   1.403       .  A
C4093      C4098   1.399       .  A
C4093      H4103   1.083       .  S
C4094      C4099   1.498       .  S
C4094      C4095   1.414       .  A
C4095      C4096   1.409       .  A
C4095      N4100   1.429       .  S
C4096      C4097   1.407       .  A
C4096      H4101   1.083       .  S
C4097      C4098   1.415       .  A
C4098      N4102   1.428       .  S
C4099      C4104   1.415       .  A
C4099      C4108   1.406       .  A
N4100      O4115   1.262       .  A
N4100      O4116   1.262       .  A
N4102      O4113   1.262       .  A
N4102      O4114   1.261       .  A
C4104      C4105   1.402       .  A
C4104      N4109   1.430       .  S
C4105      C4106   1.403       .  A
C4105      H4110   1.084       .  S
C4106      C4107   1.412       .  A
C4107      C4108   1.405       .  A
C4107      N4111   1.428       .  S
C4108      H4112   1.083       .  S
N4109      O4119   1.262       .  A
N4109      O4120   1.262       .  A
N4111      O4117   1.261       .  A
N4111      O4118   1.262       .  A
C4121      C4122   1.394       .  A
C4121      C4126   1.399       .  A
C4121      H4131   1.084       .  S
C4122      C4127   1.491       .  S
C4122      C4123   1.408       .  A
C4123      C4124   1.405       .  A
C4123      N4128   1.432       .  S
C4124      C4125   1.417       .  A
C4124      H4129   1.078       .  S
C4125      C4126   1.435       .  A
C4126      N4130   1.430       .  S
C4127      C4132   1.402       .  A
C4127      C4136   1.401       .  A
N4128      O4143   1.262       .  A
N4128      O4144   1.262       .  A
N4130      O4141   1.261       .  A
N4130      O4142   1.262       .  A
C4132      C4133   1.397       .  A
C4132      N4137   1.431       .  S
C4133      C4134   1.419       .  A
C4133      H4138   1.036       .  S
C4134      C4135   1.436       .  A
C4135      C4136   1.410       .  A
C4135      N4139   1.431       .  S
C4136      H4140   1.079       .  S
N4137      O4147   1.261       .  A
N4137      O4148   1.261       .  A
N4139      O4145   1.262       .  A
N4139      O4146   1.262       .  A
C4149      C4150   1.397       .  A
C4149      C4154   1.410       .  A
C4149      H4159   1.084       .  S
C4150      C4155   1.498       .  S
C4150      C4151   1.404       .  A
C4151      C4152   1.405       .  A
C4151      N4156   1.429       .  S
C4152      C4153   1.422       .  A
C4152      H4157   1.084       .  S
C4153      C4154   1.443       .  A
C4154      N4158   1.429       .  S
C4155      C4160   1.412       .  A
C4155      C4164   1.405       .  A
N4156      O4171   1.262       .  A
N4156      O4172   1.262       .  A
N4158      O4169   1.261       .  A
N4158      O4170   1.262       .  A
C4160      C4161   1.405       .  A
C4160      N4165   1.428       .  S
C4161      C4162   1.406       .  A
C4161      H4166   1.084       .  S
C4162      C4163   1.418       .  A
C4163      C4164   1.409       .  A
C4163      N4167   1.429       .  S
C4164      H4168   1.084       .  S
N4165      O4175   1.262       .  A
N4165      O4176   1.262       .  A
N4167      O4173   1.262       .  A
N4167      O4174   1.262       .  A
C4177      C4178   1.398       .  A
C4177      C4182   1.400       .  A
C4177      H4187   1.084       .  S
C4178      C4183   1.492       .  S
C4178      C4179   1.408       .  A
C4179      C4180   1.405       .  A
C4179      N4184   1.432       .  S
C4180      C4181   1.418       .  A
C4180      H4185   1.074       .  S
C4181      C4182   1.436       .  A
C4182      N4186   1.435       .  S
C4183      C4188   1.404       .  A
C4183      C4192   1.397       .  A
N4184      O4199   1.262       .  A
N4184      O4200   1.262       .  A
N4186      O4197   1.262       .  A
N4186      O4198   1.261       .  A
C4188      C4189   1.401       .  A
C4188      N4193   1.431       .  S
C4189      C4190   1.420       .  A
C4189      H4194   1.074       .  S
C4190      C4191   1.440       .  A
C4191      C4192   1.405       .  A
C4191      N4195   1.431       .  S
C4192      H4196   1.084       .  S
N4193      O4203   1.262       .  A
N4193      O4204   1.262       .  A
N4195      O4201   1.262       .  A
N4195      O4202   1.262       .  A
C4205      C4206   1.405       .  A
C4205      C4210   1.411       .  A
C4205      H4215   1.084       .  S
C4206      C4211   1.496       .  S
C4206      C4207   1.409       .  A
C4207      C4208   1.406       .  A
C4207      N4212   1.429       .  S
C4208      C4209   1.409       .  A
C4208      H4213   1.084       .  S
C4209      C4210   1.415       .  A
C4210      N4214   1.427       .  S
C4211      C4216   1.404       .  A
C4211      C4220   1.393       .  A
N4212      O4227   1.262       .  A
N4212      O4228   1.262       .  A
N4214      O4225   1.262       .  A
N4214      O4226   1.261       .  A
C4216      C4217   1.412       .  A
C4216      N4221   1.428       .  S
C4217      C4218   1.422       .  A
C4217      H4222   1.084       .  S
C4218      C4219   1.446       .  A
C4219      C4220   1.405       .  A
C4219      N4223   1.435       .  S
C4220      H4224   1.085       .  S
N4221      O4231   1.262       .  A
N4221      O4232   1.262       .  A
N4223      O4229   1.262       .  A
N4223      O4230   1.260       .  A
C4233      C4234   1.399       .  A
C4233      C4238   1.409       .  A
C4233      H4243   1.084       .  S
C4234      C4239   1.493       .  S
C4234      C4235   1.402       .  A
C4235      C4236   1.401       .  A
C4235      N4240   1.430       .  S
C4236      C4237   1.423       .  A
C4236      H4241   1.077       .  S
C4237      C4238   1.437       .  A
C4238      N4242   1.430       .  S
C4239      C4244   1.407       .  A
C4239      C4248   1.394       .  A
N4240      O4255   1.262       .  A
N4240      O4256   1.262       .  A
N4242      O4253   1.262       .  A
N4242      O4254   1.262       .  A
C4244      C4245   1.409       .  A
C4244      N4249   1.431       .  S
C4245      C4246   1.422       .  A
C4245      H4250   1.075       .  S
C4246      C4247   1.440       .  A
C4247      C4248   1.400       .  A
C4247      N4251   1.432       .  S
C4248      H4252   1.084       .  S
N4249      O4259   1.262       .  A
N4249      O4260   1.262       .  A
N4251      O4257   1.262       .  A
N4251      O4258   1.261       .  A
C4261      C4262   1.393       .  A
C4261      C4266   1.399       .  A
C4261      H4271   1.084       .  S
C4262      C4267   1.485       .  S
C4262      C4263   1.403       .  A
C4263      C4264   1.403       .  A
C4263      N4268   1.429       .  S
C4264      C4265   1.420       .  A
C4264      H4269   1.083       .  S
C4265      C4266   1.444       .  A
C4266      N4270   1.436       .  S
C4267      C4272   1.402       .  A
C4267      C4276   1.397       .  A
N4268      O4283   1.262       .  A
N4268      O4284   1.262       .  A
N4270      O4281   1.263       .  A
N4270      O4282   1.258       .  A
C4272      C4273   1.393       .  A
C4272      N4277   1.431       .  S
C4273      C4274   1.418       .  A
C4273      H4278   1.076       .  S
C4274      C4275   1.439       .  A
C4275      C4276   1.408       .  A
C4275      N4279   1.430       .  S
C4276      H4280   1.084       .  S
N4277      O4287   1.262       .  A
N4277      O4288   1.261       .  A
N4279      O4285   1.262       .  A
N4279      O4286   1.262       .  A
C4289      C4290   1.405       .  A
C4289      C4294   1.411       .  A
C4289      H4299   1.084       .  S
C4290      C4295   1.504       .  S
C4290      C4291   1.413       .  A
C4291      C4292   1.409       .  A
C4291      N4296   1.428       .  S
C4292      C4293   1.406       .  A
C4292      H4297   1.084       .  S
C4293      C4294   1.418       .  A
C4294      N4298   1.429       .  S
C4295      C4300   1.411       .  A
C4295      C4304   1.408   1_554  A
N4296      O4311   1.262       .  A
N4296      O4312   1.262       .  A
N4298      O4309   1.262       .  A
N4298      O4310   1.262       .  A
C4300      C4301   1.407       .  A
C4300      N4305   1.431       .  S
C4301      C4302   1.410   1_554  A
C4301      H4306   1.084       .  S
C4302      C4303   1.416       .  A
C4303      C4304   1.416       .  A
C4303      N4307   1.427       .  S
C4304      H4308   1.083       .  S
N4305      O4315   1.262       .  A
N4305      O4316   1.262       .  A
N4307      O4313   1.262       .  A
N4307      O4314   1.262       .  A
C4317      C4318   1.401       .  A
C4317      C4322   1.400       .  A
C4317      H4327   1.084       .  S
C4318      C4323   1.473       .  S
C4318      C4319   1.405       .  A
C4319      C4320   1.398       .  A
C4319      N4324   1.428       .  S
C4320      C4321   1.405       .  A
C4320      H4325   1.084       .  S
C4321      C4322   1.412       .  A
C4322      N4326   1.429       .  S
C4323      C4328   1.405       .  A
C4323      C4332   1.400       .  A
N4324      O4339   1.262       .  A
N4324      O4340   1.262       .  A
N4326      O4337   1.262       .  A
N4326      O4338   1.262       .  A
C4328      C4329   1.399       .  A
C4328      N4333   1.429       .  S
C4329      C4330   1.406       .  A
C4329      H4334   1.084       .  S
C4330      C4331   1.414       .  A
C4331      C4332   1.399       .  A
C4331      N4335   1.429       .  S
C4332      H4336   1.084       .  S
N4333      O4343   1.262       .  A
N4333      O4344   1.262       .  A
N4335      O4341   1.262       .  A
N4335      O4342   1.262       .  A
C4345      C4346   1.409       .  A
C4345      C4350   1.414       .  A
C4345      H4355   1.084       .  S
C4346      C4351   1.500       .  S
C4346      C4347   1.409       .  A
C4347      C4348   1.404       .  A
C4347      N4352   1.430       .  S
C4348      C4349   1.411       .  A
C4348      H4353   1.083       .  S
C4349      C4350   1.415       .  A
C4350      N4354   1.427       .  S
C4351      C4356   1.408       .  A
C4351      C4360   1.391       .  A
N4352      O4367   1.262       .  A
N4352      O4368   1.262       .  A
N4354      O4365   1.262       .  A
N4354      O4366   1.262       .  A
C4356      C4357   1.412       .  A
C4356      N4361   1.430       .  S
C4357      C4358   1.424       .  A
C4357      H4362   1.078       .  S
C4358      C4359   1.436       .  A
C4359      C4360   1.404       .  A
C4359      N4363   1.424       .  S
C4360      H4364   1.085       .  S
N4361      O4371   1.262       .  A
N4361      O4372   1.262       .  A
N4363      O4369   1.263       .  A
N4363      O4370   1.262       .  A
C4373      C4374   1.402       .  A
C4373      C4378   1.401   1_554  A
C4373      H4383   1.084       .  S
C4374      C4379   1.497       .  S
C4374      C4375   1.414       .  A
C4375      C4376   1.410       .  A
C4375      N4380   1.430       .  S
C4376      C4377   1.407   1_554  A
C4376      H4381   1.083       .  S
C4377      C4378   1.416       .  A
C4378      N4382   1.429       .  S
C4379      C4384   1.413       .  A
C4379      C4388   1.406   1_545  A
N4380      O4395   1.262       .  A
N4380      O4396   1.262       .  A
N4382      O4393   1.262       .  A
N4382      O4394   1.262       .  A
C4384      C4385   1.406       .  A
C4384      N4389   1.430       .  S
C4385      C4386   1.407   1_545  A
C4385      H4390   1.084       .  S
C4386      C4387   1.415       .  A
C4387      C4388   1.406       .  A
C4387      N4391   1.428       .  S
C4388      H4392   1.084       .  S
N4389      O4399   1.262       .  A
N4389      O4400   1.262       .  A
N4391      O4397   1.262       .  A
N4391      O4398   1.262       .  A
C4401      C4402   1.402       .  A
C4401      C4406   1.403       .  A
C4401      H4411   1.084       .  S
C4402      C4407   1.476   1_565  S
C4402      C4403   1.407       .  A
C4403      C4404   1.394       .  A
C4403      N4408   1.430   1_565  S
C4404      C4405   1.404       .  A
C4404      H4409   1.084       .  S
C4405      C4406   1.414       .  A
C4406      N4410   1.429       .  S
C4407      C4412   1.407       .  A
C4407      C4416   1.401   1_545  A
N4408      O4423   1.262   1_545  A
N4408      O4424   1.262       .  A
N4410      O4421   1.262       .  A
N4410      O4422   1.262       .  A
C4412      C4413   1.399       .  A
C4412      N4417   1.429       .  S
C4413      C4414   1.405       .  A
C4413      H4418   1.084       .  S
C4414      C4415   1.411       .  A
C4415      C4416   1.397   1_545  A
C4415      N4419   1.429   1_545  S
C4416      H4420   1.084       .  S
N4417      O4427   1.262       .  A
N4417      O4428   1.262       .  A
N4419      O4425   1.261       .  A
N4419      O4426   1.262   1_565  A
C4429      C4430   1.398       .  A
C4429      C4434   1.409       .  A
C4429      H4439   1.083       .  S
C4430      C4435   1.494       .  S
C4430      C4431   1.407       .  A
C4431      C4432   1.402       .  A
C4431      N4436   1.430       .  S
C4432      C4433   1.415       .  A
C4432      H4437   1.075       .  S
C4433      C4434   1.438       .  A
C4434      N4438   1.434       .  S
C4435      C4440   1.415       .  A
C4435      C4444   1.400       .  A
N4436      O4451   1.262       .  A
N4436      O4452   1.262       .  A
N4438      O4449   1.261       .  A
N4438      O4450   1.263       .  A
C4440      C4441   1.412       .  A
C4440      N4445   1.429       .  S
C4441      C4442   1.407       .  A
C4441      H4446   1.083       .  S
C4442      C4443   1.416       .  A
C4443      C4444   1.398       .  A
C4443      N4447   1.429       .  S
C4444      H4448   1.084       .  S
N4445      O4455   1.262       .  A
N4445      O4456   1.262       .  A
N4447      O4453   1.262       .  A
N4447      O4454   1.262       .  A
C4457      C4458   1.404       .  A
C4457      C4462   1.401       .  A
C4457      H4467   1.084       .  S
C4458      C4463   1.488       .  S
C4458      C4459   1.411       .  A
C4459      C4460   1.403       .  A
C4459      N4464   1.429       .  S
C4460      C4461   1.405       .  A
C4460      H4465   1.084       .  S
C4461      C4462   1.411       .  A
C4462      N4466   1.430       .  S
C4463      C4468   1.409       .  A
C4463      C4472   1.406       .  A
N4464      O4479   1.262       .  A
N4464      O4480   1.262       .  A
N4466      O4477   1.262       .  A
N4466      O4478   1.262       .  A
C4468      C4469   1.395       .  A
C4468      N4473   1.430       .  S
C4469      C4470   1.406       .  A
C4469      H4474   1.084       .  S
C4470      C4471   1.414       .  A
C4471      C4472   1.409       .  A
C4471      N4475   1.429       .  S
C4472      H4476   1.083       .  S
N4473      O4483   1.262       .  A
N4473      O4484   1.262       .  A
N4475      O4481   1.262       .  A
N4475      O4482   1.262       .  A
C4485      C4486   1.403       .  A
C4485      C4490   1.403   1_545  A
C4485      H4495   1.084       .  S
C4486      C4491   1.500       .  S
C4486      C4487   1.416   1_545  A
C4487      C4488   1.411       .  A
C4487      N4492   1.429       .  S
C4488      C4489   1.405       .  A
C4488      H4493   1.084       .  S
C4489      C4490   1.414       .  A
C4490      N4494   1.429   1_565  S
C4491      C4496   1.415       .  A
C4491      C4500   1.406       .  A
N4492      O4507   1.262       .  A
N4492      O4508   1.262       .  A
N4494      O4505   1.262       .  A
N4494      O4506   1.262       .  A
C4496      C4497   1.408       .  A
C4496      N4501   1.431   1_545  S
C4497      C4498   1.407       .  A
C4497      H4502   1.084       .  S
C4498      C4499   1.415       .  A
C4499      C4500   1.408       .  A
C4499      N4503   1.428       .  S
C4500      H4504   1.084       .  S
N4501      O4511   1.262       .  A
N4501      O4512   1.262       .  A
N4503      O4509   1.262       .  A
N4503      O4510   1.261       .  A
C4513      C4514   1.402       .  A
C4513      C4518   1.397       .  A
C4513      H4523   1.084   1_545  S
C4514      C4519   1.479   1_545  S
C4514      C4515   1.408       .  A
C4515      C4516   1.397       .  A
C4515      N4520   1.429       .  S
C4516      C4517   1.405       .  A
C4516      H4521   1.084       .  S
C4517      C4518   1.412       .  A
C4518      N4522   1.429       .  S
C4519      C4524   1.409       .  A
C4519      C4528   1.403       .  A
N4520      O4535   1.262       .  A
N4520      O4536   1.262       .  A
N4522      O4533   1.262       .  A
N4522      O4534   1.262   1_545  A
C4524      C4525   1.393       .  A
C4524      N4529   1.430   1_565  S
C4525      C4526   1.403       .  A
C4525      H4530   1.084       .  S
C4526      C4527   1.413       .  A
C4527      C4528   1.400       .  A
C4527      N4531   1.429       .  S
C4528      H4532   1.083       .  S
N4529      O4539   1.262       .  A
N4529      O4540   1.262       .  A
N4531      O4537   1.262       .  A
N4531      O4538   1.262       .  A
C4541      C4542   1.400       .  A
C4541      C4546   1.402       .  A
C4541      H4551   1.084       .  S
C4542      C4547   1.494       .  S
C4542      C4543   1.412       .  A
C4543      C4544   1.412       .  A
C4543      N4548   1.428       .  S
C4544      C4545   1.409       .  A
C4544      H4549   1.083       .  S
C4545      C4546   1.418       .  A
C4546      N4550   1.429       .  S
C4547      C4552   1.406       .  A
C4547      C4556   1.396       .  A
N4548      O4563   1.262       .  A
N4548      O4564   1.262       .  A
N4550      O4561   1.262       .  A
N4550      O4562   1.262       .  A
C4552      C4553   1.406       .  A
C4552      N4557   1.429       .  S
C4553      C4554   1.416       .  A
C4553      H4558   1.078       .  S
C4554      C4555   1.443       .  A
C4555      C4556   1.409       .  A
C4555      N4559   1.434       .  S
C4556      H4560   1.084       .  S
N4557      O4567   1.262       .  A
N4557      O4568   1.262       .  A
N4559      O4565   1.263       .  A
N4559      O4566   1.261       .  A
C4569      C4570   1.407       .  A
C4569      C4574   1.408       .  A
C4569      H4579   1.083       .  S
C4570      C4575   1.506       .  S
C4570      C4571   1.416   1_455  A
C4571      C4572   1.407       .  A
C4571      N4576   1.429       .  S
C4572      C4573   1.406       .  A
C4572      H4577   1.084       .  S
C4573      C4574   1.417   1_655  A
C4574      N4578   1.429       .  S
C4575      C4580   1.416       .  A
C4575      C4584   1.405       .  A
N4576      O4591   1.262       .  A
N4576      O4592   1.262       .  A
N4578      O4589   1.262       .  A
N4578      O4590   1.262       .  A
C4580      C4581   1.411       .  A
C4580      N4585   1.429       .  S
C4581      C4582   1.406       .  A
C4581      H4586   1.083       .  S
C4582      C4583   1.418       .  A
C4583      C4584   1.405       .  A
C4583      N4587   1.429       .  S
C4584      H4588   1.083       .  S
N4585      O4595   1.262       .  A
N4585      O4596   1.262       .  A
N4587      O4593   1.262       .  A
N4587      O4594   1.262       .  A
C4597      C4598   1.398       .  A
C4597      C4602   1.399       .  A
C4597      H4607   1.084       .  S
C4598      C4603   1.466       .  S
C4598      C4599   1.404       .  A
C4599      C4600   1.394       .  A
C4599      N4604   1.429   1_455  S
C4600      C4601   1.404       .  A
C4600      H4605   1.084       .  S
C4601      C4602   1.415       .  A
C4602      N4606   1.429       .  S
C4603      C4608   1.404       .  A
C4603      C4612   1.399   1_455  A
N4604      O4619   1.262       .  A
N4604      O4620   1.262       .  A
N4606      O4617   1.262       .  A
N4606      O4618   1.262       .  A
C4608      C4609   1.394       .  A
C4608      N4613   1.429       .  S
C4609      C4610   1.405   1_455  A
C4609      H4614   1.084       .  S
C4610      C4611   1.415       .  A
C4611      C4612   1.398       .  A
C4611      N4615   1.429       .  S
C4612      H4616   1.084       .  S
N4613      O4623   1.262       .  A
N4613      O4624   1.262       .  A
N4615      O4621   1.262       .  A
N4615      O4622   1.262       .  A
C4625      C4626   1.399       .  A
C4625      C4630   1.398       .  A
C4625      H4635   1.084       .  S
C4626      C4631   1.498       .  S
C4626      C4627   1.414       .  A
C4627      C4628   1.415       .  A
C4627      N4632   1.428       .  S
C4628      C4629   1.408       .  A
C4628      H4633   1.083       .  S
C4629      C4630   1.419       .  A
C4630      N4634   1.430       .  S
C4631      C4636   1.404       .  A
C4631      C4640   1.398       .  A
N4632      O4647   1.262       .  A
N4632      O4648   1.262       .  A
N4634      O4645   1.262       .  A
N4634      O4646   1.262       .  A
C4636      C4637   1.401       .  A
C4636      N4641   1.430       .  S
C4637      C4638   1.422       .  A
C4637      H4642   1.078       .  S
C4638      C4639   1.437       .  A
C4639      C4640   1.415       .  A
C4639      N4643   1.427       .  S
C4640      H4644   1.084       .  S
N4641      O4651   1.262       .  A
N4641      O4652   1.262       .  A
N4643      O4649   1.262       .  A
N4643      O4650   1.263       .  A
C4653      C4654   1.407       .  A
C4653      C4658   1.408       .  A
C4653      H4663   1.083       .  S
C4654      C4659   1.488       .  S
C4654      C4655   1.410       .  A
C4655      C4656   1.394       .  A
C4655      N4660   1.431       .  S
C4656      C4657   1.404       .  A
C4656      H4661   1.084       .  S
C4657      C4658   1.412       .  A
C4658      N4662   1.428       .  S
C4659      C4664   1.410       .  A
C4659      C4668   1.405       .  A
N4660      O4675   1.262       .  A
N4660      O4676   1.262       .  A
N4662      O4673   1.262       .  A
N4662      O4674   1.262       .  A
C4664      C4665   1.402       .  A
C4664      N4669   1.428       .  S
C4665      C4666   1.404       .  A
C4665      H4670   1.084       .  S
C4666      C4667   1.410       .  A
C4667      C4668   1.400       .  A
C4667      N4671   1.430       .  S
C4668      H4672   1.084       .  S
N4669      O4679   1.262       .  A
N4669      O4680   1.262       .  A
N4671      O4677   1.262       .  A
N4671      O4678   1.262       .  A
