geometry optimzed in LAMMPS
_audit_creation_date              2020-11-30 
_audit_creation_method            'lammps2cif' 
_symmetry_space_group_name_H-M    'P1' 
_symmetry_Int_Tables_number       1 
_symmetry_cell_setting            triclinic 
loop_ 
_symmetry_equiv_pos_as_xyz 
  x,y,z 
_cell_length_a                    28.71727438 
_cell_length_b                    29.345921891064535 
_cell_length_c                    45.62231941154394 
_cell_angle_alpha                 91.05174162828065 
_cell_angle_beta                  90.05700940067808 
_cell_angle_gamma                 119.39671502152919 
loop_ 
_atom_site_label 
_atom_site_type_symbol 
_atom_site_fract_x 
_atom_site_fract_y 
_atom_site_fract_z 
_atom_site_charge 
O1          O  0.41802383  0.25901202  0.87535396    -0.78000
C2          C  0.39115588  0.10015253  0.87739994     0.83100
O3          O  0.40642062  0.20485947  0.77288024    -0.79100
O4          O  0.27136658  0.04149571  0.81045648    -0.80600
O5          O  0.22707558  0.15112144  0.87363420    -0.80400
O6          O  0.34297648  0.26315296  0.87762149    -0.79000
Zn7        Zn  0.40373676  0.19846440  0.84811163     1.55700
O8          O  0.22328101  0.07371470  0.86784707    -0.80400
Cd9        Cd  0.29363179  0.20093928  0.85024825     1.59700
Cd10       Cd  0.32843041  0.16535865  0.78863368     1.59600
O11         O  0.26632260  0.22805166  0.81687966    -0.80400
O12         O  0.33088596  0.16469716  0.83300059    -1.90900
Cd13       Cd  0.29276931  0.09116473  0.84590721     1.59900
O14         O  0.28689466  0.20304358  0.77471857    -0.80400
O15         O  0.34166968  0.07379994  0.87074648    -0.79000
C16         C  0.45129763  0.22776522  0.78648072     0.83500
C17         C  0.39179220  0.28076842  0.88481012     0.83200
O18         O  0.41961965  0.14782586  0.87020251    -0.78000
C19         C  0.20395866  0.10199287  0.87728520     0.84000
O20         O  0.45481340  0.22807944  0.81436464    -0.78100
C21         C  0.26518424  0.22549272  0.78893435     0.84100
C22         C  0.27209818  0.04545949  0.78275248     0.84500
O23         O  0.29062831  0.08950935  0.77033053    -0.80500
C24         C  0.16288845  0.33360790  0.73217614    -0.02000
C25         C  0.99503892  0.99326302  0.93359082    -0.01100
O26         O  0.49676692  0.40395113  0.46055402    -0.78000
C27         C  0.13373133  0.05546911  0.45430973     0.83100
O28         O  0.05179635  0.47013441  0.56291465    -0.79100
O29         O  0.08709323  0.13100875  0.51686007    -0.80600
O30         O  0.42283881  0.01977773  0.46229983    -0.80400
O31         O  0.41975467  0.40465325  0.46287609    -0.79000
Zn32       Zn  0.04668617  0.46448928  0.48757416     1.55700
O33         O  0.50089598  0.09331580  0.46193078    -0.80400
Cd34       Cd  0.43857917  0.47095600  0.48736263     1.59700
Cd35       Cd  0.51652576  0.51121890  0.54585091     1.59600
O36         O  0.38802435  0.44992485  0.52228881    -0.80400
O37         O  0.01368915  0.50462369  0.50162249    -1.90900
Cd38       Cd  0.05129049  0.07508447  0.48441166     1.59900
O39         O  0.43895184  0.47668502  0.56287153    -0.80400
O40         O  0.11068290  0.08279130  0.45683616    -0.79000
C41         C  0.06555585  0.43964153  0.55012208     0.83500
C42         C  0.44737673  0.38416068  0.45382018     0.83200
O43         O  0.11557775  0.01089613  0.46606408    -0.78000
C44         C  0.45157974  0.06721767  0.45500865     0.84000
O45         O  0.06390268  0.43385528  0.52229868    -0.78100
C46         C  0.39325889  0.45422016  0.55006523     0.84100
C47         C  0.08718969  0.13201221  0.54477334     0.84500
O48         O  0.06158722  0.09011120  0.55933189    -0.80500
C49         C  0.34365057  0.17340538  0.40043648    -0.02000
C50         C  0.17906761  0.34143842  0.60089267    -0.02000
O51         O  0.16290366  0.22645367  0.20240106    -0.78000
C52         C  0.03568524  0.26860061  0.21326973     0.83100
O53         O  0.12348007  0.24871278  0.10423250    -0.79100
O54         O  0.10305510  0.39226413  0.14823352    -0.80600
O55         O  0.25123153  0.42021042  0.20873059    -0.80400
O56         O  0.24187523  0.29888952  0.20818871    -0.79000
Zn57       Zn  0.11692970  0.24904892  0.17954383     1.55700
O58         O  0.17606518  0.42477498  0.20825523    -0.80400
Cd59       Cd  0.23198819  0.35281290  0.18414896     1.59700
Cd60       Cd  0.16300146  0.32456778  0.12246487     1.59600
O61         O  0.28731138  0.37660250  0.15126320    -0.80400
O62         O  0.15864083  0.32094411  0.16681721    -1.90900
Cd63       Cd  0.12477534  0.36176723  0.18225504     1.59900
O64         O  0.24337401  0.36158004  0.10882556    -0.80400
O65         O  0.05723820  0.31632467  0.20609111    -0.79000
C66         C  0.09378904  0.20487938  0.11622945     0.83500
C67         C  0.21089045  0.25025113  0.21211846     0.83200
O68         O  0.05504153  0.23954101  0.20510432    -0.78000
C69         C  0.22488080  0.44331083  0.21560760     0.84000
O70         O  0.08708423  0.20103071  0.14390804    -0.78100
C71         C  0.28713042  0.37915306  0.12344167     0.84100
C72         C  0.10483543  0.39035315  0.12039006     0.84500
O73         O  0.12514139  0.36569097  0.10694076    -0.80500
C74         C  0.99643888  0.99385486  0.06527036    -0.02000
C75         C  0.32551631  0.15525924  0.26819129    -0.02000
C76         C  0.44002583  0.45896937  0.07891135    -0.05000
C77         C  0.43624700  0.46147594  0.10971747    -0.32400
C78         C  0.38752796  0.43623369  0.12413705     0.36900
C79         C  0.33977360  0.40454188  0.10828244    -0.05300
C80         C  0.34332221  0.39704378  0.07802823    -0.32300
C81         C  0.39275736  0.42258140  0.06338713     0.36800
H82         H  0.47155911  0.48595798  0.12283982     0.17100
O83         O  0.38742902  0.44393778  0.15389104    -0.59800
H84         H  0.30772550  0.37028899  0.06567822     0.17200
O85         O  0.39482849  0.40779677  0.03489566    -0.59900
H86         H  0.36779729  0.41237699  0.02373021     0.44200
H87         H  0.38427456  0.47594756  0.15643837     0.44100
C88         C  0.01938852  0.05301948  0.07394310    -0.05000
C89         C  0.98846084  0.07151996  0.08886430    -0.32400
C90         C  0.01198529  0.12162625  0.10169037     0.36900
C91         C  0.06662831  0.15637432  0.09807403    -0.05300
C92         C  0.09590797  0.14186118  0.07925847    -0.32300
C93         C  0.07261651  0.09103117  0.06685381     0.36800
H94         H  0.44590672  0.04712264  0.09156895     0.17100
O95         O  0.98107893  0.13644650  0.11776875    -0.59800
H96         H  0.13789520  0.16874648  0.07569951     0.17200
O97         O  0.10404781  0.07726657  0.05054220    -0.59900
H98         H  0.10517525  0.09133633  0.03079560     0.44200
H99         H  0.47683016  0.11996414  0.13709321     0.44100
C100        C  0.03067833  0.47048977  0.07846372    -0.05000
C101        C  0.01782523  0.41887690  0.06976434    -0.32400
C102        C  0.04439855  0.39383765  0.08146361     0.36900
C103        C  0.08243714  0.41834464  0.10396430    -0.05300
C104        C  0.09378363  0.46807669  0.11401260    -0.32300
C105        C  0.06856215  0.49407246  0.10197423     0.36800
H106        H  0.98655894  0.39763848  0.05356715     0.17100
O107        O  0.02981602  0.34378914  0.07232574    -0.59800
H108        H  0.12120010  0.48638267  0.13235861     0.17200
O109        O  0.07665216  0.03906613  0.11614588    -0.59900
H110        H  0.11531461  0.06443243  0.11427811     0.44200
H111        H  0.05290471  0.34782652  0.05531094     0.44100
C112        C  0.23288222  0.22033347  0.22656164    -0.05000
C113        C  0.22714039  0.21137426  0.25668605    -0.32400
C114        C  0.25262685  0.18714390  0.27086463     0.36900
C115        C  0.28786924  0.17462901  0.25497295    -0.05300
C116        C  0.28747630  0.17850711  0.22404629    -0.32300
C117        C  0.26172333  0.20210353  0.21011367     0.36800
H118        H  0.20276624  0.22318316  0.26932700     0.17100
O119        O  0.24125558  0.17498979  0.29979896    -0.59800
H120        H  0.31055112  0.16618819  0.21061807     0.17200
O121        O  0.26576095  0.20801903  0.18030145    -0.59900
H122        H  0.29943158  0.24122403  0.17727115     0.44200
H123        H  0.20309443  0.14758199  0.30026017     0.44100
C124        C  0.30060256  0.09812472  0.25559661    -0.05000
C125        C  0.32572525  0.08409596  0.23326057    -0.32400
C126        C  0.30313901  0.03306362  0.22189005     0.36900
C127        C  0.25227382  0.49486081  0.23080944    -0.05300
C128        C  0.22506954  0.50854445  0.25154546    -0.32300
C129        C  0.24861594  0.05921377  0.26399274     0.36800
H130        H  0.36232357  0.11268033  0.22333148     0.17100
O131        O  0.32930457  0.02216903  0.20007604    -0.59800
H132        H  0.18505263  0.47993133  0.25798430     0.17200
O133        O  0.21980895  0.07091385  0.28372821    -0.59900
H134        H  0.21564899  0.04969699  0.30120441     0.44200
H135        H  0.35476288  0.01416017  0.21040027     0.44100
C136        C  0.98633432  0.24580365  0.23094690    -0.05000
C137        C  0.47384417  0.20247647  0.24822538    -0.32400
C138        C  0.42443823  0.17577582  0.26222445     0.36900
C139        C  0.38457789  0.19057723  0.25792986    -0.05300
C140        C  0.40123147  0.23908484  0.24428962    -0.32300
C141        C  0.45053565  0.26558847  0.23025067     0.36800
H142        H  0.00213657  0.18835011  0.25045890     0.17100
O143        O  0.41477965  0.13382179  0.27902272    -0.59800
H144        H  0.37573906  0.25653247  0.24357276     0.17200
O145        O  0.96236174  0.30990788  0.21513501    -0.59900
H146        H  0.44652750  0.29731024  0.19530133     0.44200
H147        H  0.41724803  0.10799602  0.26570872     0.44100
C148        C  0.34373408  0.17129077  0.36563688    -0.05000
C149        C  0.33804828  0.12650115  0.35023930    -0.32400
C150        C  0.32949625  0.11885622  0.31992056     0.36900
C151        C  0.33015247  0.15850170  0.30234398    -0.05300
C152        C  0.34279906  0.20603216  0.31683863    -0.32300
C153        C  0.34443954  0.21104526  0.34755060     0.36800
H154        H  0.33947211  0.09517196  0.36072422     0.17100
O155        O  0.32535707  0.07377419  0.30782351    -0.59800
H156        H  0.34683021  0.23863060  0.30417551     0.17200
O157        O  0.34336734  0.25398733  0.35905173    -0.59900
H158        H  0.30492898  0.24337786  0.36056556     0.44200
H159        H  0.29338609  0.04438597  0.31663151     0.44100
C160        C  0.18510497  0.07878999  0.43927995    -0.05000
C161        C  0.18811078  0.09103003  0.40961554    -0.32400
C162        C  0.23769213  0.12020249  0.39597436     0.36900
C163        C  0.28605842  0.13946472  0.41259386    -0.05300
C164        C  0.28134011  0.12777584  0.44288686    -0.32300
C165        C  0.23206098  0.09684400  0.45582651     0.36800
H166        H  0.15168098  0.07886542  0.39705929     0.17100
O167        O  0.23736373  0.13309674  0.36729929    -0.59800
H168        H  0.31652124  0.14340646  0.45689517     0.17200
O169        O  0.23004159  0.08782178  0.48532420    -0.59900
H170        H  0.23208834  0.05519822  0.48696806     0.44200
H171        H  0.22633459  0.10034029  0.35574447     0.44100
C172        C  0.41995312  0.33454144  0.43650448    -0.05000
C173        C  0.36542287  0.30127029  0.44098492    -0.32400
C174        C  0.33857207  0.25130611  0.42816770     0.36900
C175        C  0.36698575  0.23172639  0.41113991    -0.05300
C176        C  0.41960047  0.26899730  0.40286423    -0.32300
C177        C  0.44664653  0.31896275  0.41628348     0.36800
H178        H  0.34317717  0.31354326  0.45517461     0.17100
O179        O  0.28443594  0.22354273  0.43215469    -0.59800
H180        H  0.44153118  0.25733556  0.38805595     0.17200
O181        O  0.49921549  0.35182868  0.40973867    -0.59900
H182        H  0.51982265  0.34030129  0.42206875     0.44200
H183        H  0.26865749  0.23232205  0.41530558     0.44100
C184        C  0.37695635  0.14821168  0.41381273    -0.05000
C185        C  0.35387802  0.09272819  0.41222420    -0.32400
C186        C  0.37830541  0.06611989  0.42407919     0.36900
C187        C  0.42684604  0.09386470  0.43942916    -0.05300
C188        C  0.44918180  0.14793276  0.44300245    -0.32300
C189        C  0.42354703  0.17439646  0.43241185     0.36800
H190        H  0.31414402  0.06854728  0.40310789     0.17100
O191        O  0.35295361  0.51260149  0.42138596    -0.59800
H192        H  0.48455704  0.16958786  0.45668051     0.17200
O193        O  0.44133166  0.22331149  0.44430525    -0.59900
H194        H  0.41993138  0.21806918  0.46223409     0.44200
H195        H  0.36821583  0.50526225  0.40360477     0.44100
C196        C  0.23765310  0.37706050  0.58967685    -0.05000
C197        C  0.27664304  0.36215411  0.59610719    -0.32400
C198        C  0.32910425  0.38982901  0.58565573     0.36900
C199        C  0.34366766  0.43215182  0.56710818    -0.05300
C200        C  0.30603992  0.44719733  0.56006297    -0.32300
C201        C  0.25373051  0.42014959  0.57032797     0.36800
H202        H  0.26596185  0.32813751  0.60928824     0.17100
O203        O  0.36454433  0.37263393  0.59186192    -0.59800
H204        H  0.31640310  0.47860029  0.54481034     0.17200
O205        O  0.21872794  0.43442579  0.55892702    -0.59900
H206        H  0.21123509  0.42051847  0.53846739     0.44200
H207        H  0.38351896  0.39210190  0.60998884     0.44100
C208        C  0.16077027  0.28593120  0.58681291    -0.05000
C209        C  0.14362106  0.24046200  0.60374865    -0.32400
C210        C  0.12091108  0.19030411  0.59067862     0.36900
C211        C  0.11662857  0.18413174  0.55995310    -0.05300
C212        C  0.13975715  0.22930949  0.54301181    -0.32300
C213        C  0.16155841  0.27927667  0.55589443     0.36800
H214        H  0.14653526  0.24268525  0.62736793     0.17100
O215        O  0.60205694  0.14767305  0.60834003    -0.59800
H216        H  0.13942314  0.22625664  0.51930199     0.17200
O217        O  0.18240078  0.32151248  0.53784085    -0.59900
H218        H  0.15190406  0.31852933  0.52606762     0.44200
H219        H  0.63228470  0.14067579  0.61065385     0.44100
C220        C  0.08515860  0.41059715  0.56757359    -0.05000
C221        C  0.12201515  0.43565987  0.59049933    -0.32400
C222        C  0.14955887  0.41214021  0.60286170     0.36900
C223        C  0.14128900  0.36301506  0.59170357    -0.05300
C224        C  0.09707546  0.33485101  0.57252541    -0.32300
C225        C  0.07068947  0.35883203  0.55976096     0.36800
H226        H  0.13240139  0.47508045  0.59739649     0.17100
O227        O  0.18907470  0.44025267  0.62321845    -0.59800
H228        H  0.08318342  0.29454308  0.56630961     0.17200
O229        O  0.03053958  0.33123305  0.53960977    -0.59900
H230        H  0.04889277  0.33120071  0.52119784     0.44200
H231        H  0.17021216  0.43613984  0.64201277     0.44100
C232        C  0.99564544  0.99312454  0.03098012    -0.05000
C233        C  0.02833978  0.97933600  0.01421529    -0.32400
C234        C  0.02779502  0.97898097  0.98354227     0.36900
C235        C  0.99624863  0.99547531  0.96781297    -0.05300
C236        C  0.46426664  0.51032142  0.98449690    -0.32300
C237        C  0.46474321  0.51050414  0.01531427     0.36800
H238        H  0.05648321  0.97011620  0.02442289     0.17100
O239        O  0.05888597  0.96247687  0.96900427    -0.59800
H240        H  0.43722686  0.52078935  0.97402665     0.17200
O241        O  0.43506253  0.52844556  0.03010248    -0.59900
H242        H  0.39722523  0.50445231  0.02453874     0.44200
H243        H  0.09648470  0.98905079  0.97354157     0.44100
C244        C  0.16681924  0.33477229  0.69801908    -0.05000
C245        C  0.12122550  0.31348594  0.67957015    -0.32400
C246        C  0.12510738  0.31302068  0.64901556     0.36900
C247        C  0.17562528  0.33888215  0.63512287    -0.05300
C248        C  0.22102784  0.36460424  0.65364295    -0.32300
C249        C  0.21725981  0.36131834  0.68418349     0.36800
H250        H  0.08146313  0.29686134  0.68827534     0.17100
O251        O  0.07859938  0.28862300  0.63275854    -0.59800
H252        H  0.26048899  0.38858584  0.64515426     0.17200
O253        O  0.26379215  0.38424632  0.70043320    -0.59900
H254        H  0.27796949  0.42250479  0.69901816     0.44200
H255        H  0.06331733  0.25066347  0.63616044     0.44100
C256        C  0.41950107  0.32955006  0.90296406    -0.05000
C257        C  0.39001488  0.34748842  0.91933920    -0.32400
C258        C  0.41478660  0.39840223  0.93165516     0.36900
C259        C  0.46950639  0.43356027  0.92610868    -0.05300
C260        C  0.49981040  0.41171558  0.91416403    -0.32300
C261        C  0.47542909  0.36111149  0.90217982     0.36800
H262        H  0.34725619  0.32279576  0.92167362     0.17100
O263        O  0.38460590  0.41468171  0.94734330    -0.59800
H264        H  0.04286660  0.43408103  0.91303537     0.17200
O265        O  0.50683826  0.34398631  0.88862722    -0.59900
H266        H  0.01219431  0.35776733  0.86849327     0.44200
H267        H  0.35809521  0.41441182  0.93328698     0.44100
C268        C  0.05161873  0.02530040  0.91992963    -0.05000
C269        C  0.05672824  0.01795632  0.88957732    -0.32400
C270        C  0.10622066  0.04146577  0.87592448     0.36900
C271        C  0.15199447  0.07670385  0.89174765    -0.05300
C272        C  0.14731038  0.08945797  0.92085960    -0.32300
C273        C  0.09772932  0.06492585  0.93494668     0.36800
H274        H  0.02222904  0.49135966  0.87653664     0.17100
O275        O  0.10922897  0.03090904  0.84677326    -0.59800
H276        H  0.18228420  0.11863503  0.93276193     0.17200
O277        O  0.09519869  0.08132699  0.96294157    -0.59900
H278        H  0.09817234  0.11624329  0.96099087     0.44200
H279        H  0.11196384  0.49852310  0.84632156     0.44100
C280        C  0.46366345  0.01854122  0.91937603    -0.05000
C281        C  0.47884911  0.07098369  0.92736104    -0.32400
C282        C  0.45551988  0.09795909  0.91434046     0.36900
C283        C  0.41615290  0.07325829  0.89245808    -0.05300
C284        C  0.40193447  0.02226895  0.88343582    -0.32300
C285        C  0.42677291  0.99591786  0.89536863     0.36800
H286        H  0.00928536  0.09140036  0.94402527     0.17100
O287        O  0.47149165  0.14843434  0.92325813    -0.59800
H288        H  0.37340774  0.00359275  0.86559023     0.17200
O289        O  0.41642780  0.44964038  0.88192820    -0.59900
H290        H  0.43262634  0.45886136  0.86222497     0.44200
H291        H  0.94764017  0.14534897  0.93971278     0.44100
C292        C  0.23704292  0.24919241  0.77324222    -0.05000
C293        C  0.20931176  0.26863150  0.78984502    -0.32400
C294        C  0.18398996  0.29330709  0.77676857     0.36900
C295        C  0.18623736  0.30046643  0.74594001    -0.05300
C296        C  0.21047841  0.27685857  0.72912190    -0.32300
C297        C  0.23675402  0.25283894  0.74247896     0.36800
H298        H  0.20774450  0.26568210  0.81349738     0.17100
O299        O  0.16050683  0.31397346  0.79478461    -0.59800
H300        H  0.21042593  0.27733488  0.70548415     0.17200
O301        O  0.26221081  0.23341959  0.72510999    -0.59900
H302        H  0.29829729  0.26358042  0.72184393     0.44200
H303        H  0.12705766  0.28353651  0.80156755     0.44100
C304        C  0.50116178  0.25562314  0.76981416    -0.05000
C305        C  0.51720426  0.22813426  0.75081103    -0.32400
C306        C  0.06787202  0.25313733  0.73779329     0.36900
C307        C  0.10361378  0.30751957  0.74302900    -0.05300
C308        C  0.08553326  0.33450514  0.76186751    -0.32300
C309        C  0.03539586  0.30915814  0.77499693     0.36800
H310        H  0.49144547  0.18646491  0.74717515     0.17100
O311        O  0.08372069  0.22338260  0.72151754    -0.59800
H312        H  0.11094299  0.37473527  0.76854968     0.17200
O313        O  0.02107588  0.33683044  0.79400265    -0.59900
H314        H  0.00240507  0.35050305  0.78167972     0.44200
H315        H  0.05887308  0.20952240  0.70443735     0.44100
C316        C  0.25145872  0.99648526  0.76542590    -0.05000
C317        C  0.21095332  0.48225572  0.74434274    -0.32400
C318        C  0.18338469  0.43071207  0.73287339     0.36900
C319        C  0.19598179  0.39217729  0.74274884    -0.05300
C320        C  0.24163415  0.40988870  0.76116025    -0.32300
C321        C  0.26809838  0.46055417  0.77280228     0.36800
H322        H  0.19864329  0.51016734  0.73795075     0.17100
O323        O  0.14339148  0.41789359  0.71248840    -0.59800
H324        H  0.25799780  0.38514865  0.76703128     0.17200
O325        O  0.30967252  0.97428878  0.79221280    -0.59900
H326        H  0.34186413  0.98626589  0.77989878     0.44200
H327        H  0.11471241  0.42100044  0.72286742     0.44100
O328        O  0.41801765  0.75900959  0.87535777    -0.78000
C329        C  0.39112918  0.60014495  0.87740528     0.83100
O330        O  0.40640641  0.70486169  0.77288277    -0.79100
O331        O  0.27135974  0.54149711  0.81045847    -0.80600
O332        O  0.22706452  0.65113061  0.87363539    -0.80400
O333        O  0.34297410  0.76315734  0.87762673    -0.79000
Zn334      Zn  0.40372402  0.69846062  0.84811415     1.55700
O335        O  0.22325440  0.57371824  0.86783927    -0.80400
Cd336      Cd  0.29362525  0.70094708  0.85025211     1.59700
Cd337      Cd  0.32841651  0.66535987  0.78863674     1.59600
O338        O  0.26631877  0.72806452  0.81688452    -0.80400
O339        O  0.33087329  0.66469919  0.83300347    -1.90900
Cd340      Cd  0.29275049  0.59116597  0.84590873     1.59900
O341        O  0.28687868  0.70304408  0.77472360    -0.80400
O342        O  0.34164147  0.57379722  0.87075434    -0.79000
C343        C  0.45128416  0.72776311  0.78648265     0.83500
C344        C  0.39178956  0.78076918  0.88481486     0.83200
O345        O  0.41959819  0.64781576  0.87020436    -0.78000
C346        C  0.20393763  0.60199983  0.87727976     0.84000
O347        O  0.45480082  0.72807367  0.81436649    -0.78100
C348        C  0.26517429  0.72549930  0.78893929     0.84100
C349        C  0.27209329  0.54546068  0.78275447     0.84500
O350        O  0.29061870  0.58951034  0.77033271    -0.80500
C351        C  0.16287414  0.83360639  0.73217680    -0.02000
C352        C  0.99502298  0.49325953  0.93358866    -0.01100
O353        O  0.49676081  0.90394516  0.46054801    -0.78000
C354        C  0.13372914  0.55547360  0.45431598     0.83100
O355        O  0.05180677  0.97013152  0.56290976    -0.79100
O356        O  0.08708092  0.63100987  0.51686168    -0.80600
O357        O  0.42282662  0.51977506  0.46229926    -0.80400
O358        O  0.41975094  0.90465080  0.46287596    -0.79000
Zn359      Zn  0.04668758  0.96448307  0.48756869     1.55700
O360        O  0.50088294  0.59331340  0.46192851    -0.80400
Cd361      Cd  0.43858490  0.97095549  0.48736298     1.59700
Cd362      Cd  0.51653557  0.01121762  0.54584896     1.59600
O363        O  0.38803193  0.94992893  0.52228991    -0.80400
O364        O  0.01369648  0.00462076  0.50162067    -1.90900
Cd365      Cd  0.05128010  0.57508640  0.48441231     1.59900
O366        O  0.43896282  0.97668409  0.56287136    -0.80400
O367        O  0.11067802  0.58279385  0.45684009    -0.79000
C368        C  0.06556292  0.93963661  0.55011643     0.83500
C369        C  0.44736972  0.88415705  0.45381650     0.83200
O370        O  0.11557710  0.51090193  0.46607143    -0.78000
C371        C  0.45156611  0.56721461  0.45500688     0.84000
O372        O  0.06390604  0.93384866  0.52229294    -0.78100
C373        C  0.39326877  0.95422228  0.55006625     0.84100
C374        C  0.08718007  0.63201241  0.54477505     0.84500
O375        O  0.06157755  0.59011135  0.55933347    -0.80500
C376        C  0.34363825  0.67340416  0.40043077    -0.02000
C377        C  0.17907653  0.84143902  0.60089346    -0.02000
O378        O  0.16287812  0.72645120  0.20240831    -0.78000
C379        C  0.03566693  0.76860586  0.21327752     0.83100
O380        O  0.12346175  0.74871151  0.10424012    -0.79100
O381        O  0.10303066  0.89226656  0.14824308    -0.80600
O382        O  0.25120182  0.92019926  0.20874899    -0.80400
O383        O  0.24185734  0.79888098  0.20818583    -0.79000
Zn384      Zn  0.11690654  0.74904920  0.17955055     1.55700
O385        O  0.17604541  0.92478133  0.20826610    -0.80400
Cd386      Cd  0.23196459  0.85281260  0.18415681     1.59700
Cd387      Cd  0.16297325  0.82456742  0.12247291     1.59600
O388        O  0.28728688  0.87661943  0.15126930    -0.80400
O389        O  0.15861720  0.82094574  0.16682543    -1.90900
Cd390      Cd  0.12475580  0.86177311  0.18226437     1.59900
O391        O  0.24334499  0.86158950  0.10883257    -0.80400
O392        O  0.05722066  0.81633064  0.20610060    -0.79000
C393        C  0.09377241  0.70487678  0.11623628     0.83500
C394        C  0.21086932  0.75024416  0.21211902     0.83200
O395        O  0.05502085  0.73954520  0.20511016    -0.78000
C396        C  0.22485747  0.94330751  0.21562370     0.84000
O397        O  0.08706306  0.70102801  0.14391463    -0.78100
C398        C  0.28710324  0.87916962  0.12344767     0.84100
C399        C  0.10480228  0.89034844  0.12039946     0.84500
O400        O  0.12510390  0.86568267  0.10694971    -0.80500
C401        C  0.99646437  0.49385637  0.06526802    -0.02000
C402        C  0.32549479  0.65524794  0.26818786    -0.02000
C403        C  0.43999773  0.95898002  0.07891369    -0.05000
C404        C  0.43621928  0.96149198  0.10971971    -0.32400
C405        C  0.38750044  0.93625534  0.12413997     0.36900
C406        C  0.33974498  0.90456260  0.10828664    -0.05300
C407        C  0.34329128  0.89706391  0.07803220    -0.32300
C408        C  0.39272583  0.92259770  0.06339002     0.36800
H409        H  0.47153251  0.98597239  0.12284160     0.17100
O410        O  0.38740311  0.94396438  0.15389354    -0.59800
H411        H  0.30769309  0.87031070  0.06568277     0.17200
O412        O  0.39479192  0.90781421  0.03489765    -0.59900
H413        H  0.36776294  0.91240035  0.02373405     0.44200
H414        H  0.38424414  0.97597219  0.15643886     0.44100
C415        C  0.01940285  0.55301845  0.07394482    -0.05000
C416        C  0.98846674  0.57150712  0.08886803    -0.32400
C417        C  0.01198058  0.62161188  0.10169591     0.36900
C418        C  0.06662132  0.65637052  0.09808026    -0.05300
C419        C  0.09590854  0.64186818  0.07926354    -0.32300
C420        C  0.07262746  0.59103999  0.06685656     0.36800
H421        H  0.44591304  0.54710091  0.09157273     0.17100
O422        O  0.98106547  0.63642068  0.11777459    -0.59800
H423        H  0.13789388  0.66876132  0.07570477     0.17200
O424        O  0.10406589  0.57728734  0.05054300    -0.59900
H425        H  0.10518523  0.59135444  0.03079649     0.44200
H426        H  0.47682054  0.61993668  0.13709961     0.44100
C427        C  0.03064399  0.97048246  0.07847090    -0.05000
C428        C  0.01778469  0.91886642  0.06977528    -0.32400
C429        C  0.04435692  0.89382665  0.08147568     0.36900
C430        C  0.08240004  0.91833683  0.10397401    -0.05300
C431        C  0.09374924  0.96807065  0.11402029    -0.32300
C432        C  0.06852852  0.99406633  0.10198103     0.36800
H433        H  0.98651667  0.89762727  0.05357905     0.17100
O434        O  0.02977050  0.84377571  0.07234099    -0.59800
H435        H  0.12116800  0.98637869  0.13236518     0.17200
O436        O  0.07668416  0.53907052  0.11614042    -0.59900
H437        H  0.11534579  0.56443886  0.11427123     0.44200
H438        H  0.05282485  0.84780810  0.05531016     0.44100
C439        C  0.23286122  0.72032259  0.22655831    -0.05000
C440        C  0.22708789  0.71132498  0.25667855    -0.32400
C441        C  0.25257509  0.68709311  0.27085518     0.36900
C442        C  0.28784463  0.67461156  0.25496663    -0.05300
C443        C  0.28747640  0.67851823  0.22404125    -0.32300
C444        C  0.26172929  0.70212281  0.21011083     0.36800
H445        H  0.20269154  0.72310790  0.26931806     0.17100
O446        O  0.24118081  0.67490640  0.29978452    -0.59800
H447        H  0.31056922  0.66622032  0.21061375     0.17200
O448        O  0.26579666  0.70807362  0.18030143    -0.59900
H449        H  0.29946749  0.74128613  0.17728640     0.44200
H450        H  0.20301788  0.64750090  0.30023431     0.44100
C451        C  0.30059511  0.59811804  0.25558934    -0.05000
C452        C  0.32571649  0.58411007  0.23324231    -0.32400
C453        C  0.30314028  0.53308265  0.22186507     0.36900
C454        C  0.25225810  0.99485847  0.23082577    -0.05300
C455        C  0.22505320  0.00856270  0.25155101    -0.32300
C456        C  0.24861936  0.55919208  0.26399018     0.36800
H457        H  0.36230481  0.61270821  0.22331036     0.17100
O458        O  0.32929745  0.52220890  0.20003708    -0.59800
H459        H  0.18502710  0.97996331  0.25798409     0.17200
O460        O  0.21981061  0.57087304  0.28373441    -0.59900
H461        H  0.21564880  0.54963952  0.30120331     0.44200
H462        H  0.35477506  0.51421072  0.21034820     0.44100
C463        C  0.98631781  0.74580854  0.23095525    -0.05000
C464        C  0.47382559  0.70247573  0.24822833    -0.32400
C465        C  0.42441817  0.67576918  0.26222425     0.36900
C466        C  0.38455887  0.69057323  0.25793332    -0.05300
C467        C  0.40121499  0.73908795  0.24430132    -0.32300
C468        C  0.45051974  0.76559542  0.23026323     0.36800
H469        H  0.00211774  0.68834744  0.25045905     0.17100
O470        O  0.41475765  0.63380643  0.27901474    -0.59800
H471        H  0.37572248  0.75653588  0.24358883     0.17200
O472        O  0.96234890  0.80992036  0.21515267    -0.59900
H473        H  0.44650686  0.79732753  0.19531910     0.44200
H474        H  0.41722127  0.60798488  0.26569484     0.44100
C475        C  0.34371581  0.67128640  0.36563203    -0.05000
C476        C  0.33805728  0.62650721  0.35023473    -0.32400
C477        C  0.32949255  0.61885407  0.31991694     0.36900
C478        C  0.33012187  0.65848778  0.30234066    -0.05300
C479        C  0.34274083  0.70601111  0.31683539    -0.32300
C480        C  0.34438527  0.71102511  0.34754713     0.36800
H481        H  0.33951328  0.59519366  0.36071990     0.17100
O482        O  0.32536463  0.57377665  0.30782003    -0.59800
H483        H  0.34675095  0.73860204  0.30417281     0.17200
O484        O  0.34328778  0.75395322  0.35905042    -0.59900
H485        H  0.30484507  0.74332802  0.36055976     0.44200
H486        H  0.29340721  0.54438341  0.31663499     0.44100
C487        C  0.18510178  0.57879330  0.43928539    -0.05000
C488        C  0.18810040  0.59100591  0.40961710    -0.32400
C489        C  0.23767797  0.62017539  0.39597208     0.36900
C490        C  0.28604817  0.63946397  0.41259139    -0.05300
C491        C  0.28133723  0.62779495  0.44288702    -0.32300
C492        C  0.23206135  0.59686784  0.45583139     0.36800
H493        H  0.15166730  0.57882084  0.39706013     0.17100
O494        O  0.23733994  0.63303472  0.36729104    -0.59800
H495        H  0.31652210  0.64343997  0.45689330     0.17200
O496        O  0.23004817  0.58786848  0.48533170    -0.59900
H497        H  0.23208751  0.55524268  0.48698452     0.44200
H498        H  0.22632313  0.60026824  0.35574837     0.44100
C499        C  0.41994147  0.83454011  0.43649865    -0.05000
C500        C  0.36541264  0.80126731  0.44098250    -0.32400
C501        C  0.33855993  0.75130538  0.42816238     0.36900
C502        C  0.36697219  0.73172707  0.41113194    -0.05300
C503        C  0.41957970  0.76900297  0.40284867    -0.32300
C504        C  0.44662803  0.81896753  0.41626940     0.36800
H505        H  0.34316954  0.81353806  0.45517575     0.17100
O506        O  0.28442270  0.72354505  0.43214639    -0.59800
H507        H  0.44150622  0.75734506  0.38803491     0.17200
O508        O  0.49919262  0.85183839  0.40971811    -0.59900
H509        H  0.51980853  0.84031460  0.42204348     0.44200
H510        H  0.26864850  0.73232187  0.41529433     0.44100
C511        C  0.37694598  0.64821059  0.41380549    -0.05000
C512        C  0.35385989  0.59272551  0.41222356    -0.32400
C513        C  0.37828207  0.56611500  0.42408300     0.36900
C514        C  0.42683096  0.59386032  0.43942588    -0.05300
C515        C  0.44918058  0.64793187  0.44298690    -0.32300
C516        C  0.42355135  0.67439924  0.43239360     0.36800
H517        H  0.31412763  0.56854727  0.40310398     0.17100
O518        O  0.35298808  0.01260792  0.42137254    -0.59800
H519        H  0.48456733  0.66959100  0.45665606     0.17200
O520        O  0.44136722  0.72333056  0.44426965    -0.59900
H521        H  0.41999067  0.71811828  0.46220523     0.44200
H522        H  0.36826023  0.00528355  0.40359056     0.44100
C523        C  0.23766408  0.87706320  0.58967990    -0.05000
C524        C  0.27665274  0.86215395  0.59610805    -0.32400
C525        C  0.32911308  0.88982639  0.58565463     0.36900
C526        C  0.34367904  0.93215436  0.56711065    -0.05300
C527        C  0.30605395  0.94720511  0.56006940    -0.32300
C528        C  0.25374418  0.92015653  0.57033360     0.36800
H529        H  0.26596999  0.82813450  0.60928683     0.17100
O530        O  0.36454863  0.87262277  0.59185416    -0.59800
H531        H  0.31641866  0.97861170  0.54481913     0.17200
O532        O  0.21874390  0.93443572  0.55893300    -0.59900
H533        H  0.21124073  0.92051766  0.53847556     0.44200
H534        H  0.38354215  0.89209917  0.60997544     0.44100
C535        C  0.16078048  0.78593126  0.58681481    -0.05000
C536        C  0.14361506  0.74046039  0.60375107    -0.32400
C537        C  0.12089718  0.69030211  0.59068116     0.36900
C538        C  0.11662493  0.68413071  0.55995542    -0.05300
C539        C  0.13977173  0.72930863  0.54301445    -0.32300
C540        C  0.16157963  0.77927646  0.55589692     0.36800
H541        H  0.14651976  0.74268220  0.62737059     0.17100
O542        O  0.60202583  0.64767038  0.60834205    -0.59800
H543        H  0.13944684  0.72625585  0.51930482     0.17200
O544        O  0.18243779  0.82151262  0.53784349    -0.59900
H545        H  0.15194748  0.81854030  0.52606870     0.44200
H546        H  0.63224868  0.64066861  0.61066545     0.44100
C547        C  0.08516701  0.91059278  0.56756751    -0.05000
C548        C  0.12201741  0.93565406  0.59049606    -0.32400
C549        C  0.14956144  0.91213607  0.60285988     0.36900
C550        C  0.14129838  0.86301397  0.59170054    -0.05300
C551        C  0.09709093  0.83485063  0.57251831    -0.32300
C552        C  0.07070414  0.85882998  0.55975291     0.36800
H553        H  0.13239864  0.97507263  0.59739475     0.17100
O554        O  0.18907182  0.94024799  0.62321950    -0.59800
H555        H  0.08320324  0.79454433  0.56630062     0.17200
O556        O  0.03055837  0.83123102  0.53959956    -0.59900
H557        H  0.04891548  0.83120134  0.52118862     0.44200
H558        H  0.17020435  0.93613287  0.64201230     0.44100
C559        C  0.99566511  0.49313030  0.03097792    -0.05000
C560        C  0.02836068  0.47934950  0.01420888    -0.32400
C561        C  0.02780162  0.47898743  0.98353581     0.36900
C562        C  0.99624186  0.49547125  0.96781078    -0.05300
C563        C  0.46427365  0.01033125  0.98449491    -0.32300
C564        C  0.46473765  0.01050939  0.01531231     0.36800
H565        H  0.05651343  0.47013865  0.02441313     0.17100
O566        O  0.05889249  0.46248809  0.96899352    -0.59800
H567        H  0.43724319  0.02080755  0.97402126     0.17200
O568        O  0.43506104  0.02846009  0.03009649    -0.59900
H569        H  0.39722423  0.00447848  0.02452611     0.44200
H570        H  0.09649165  0.48906701  0.97352653     0.44100
C571        C  0.16681072  0.83477373  0.69801977    -0.05000
C572        C  0.12122044  0.81349482  0.67956870    -0.32400
C573        C  0.12510710  0.81302789  0.64901430     0.36900
C574        C  0.17562791  0.83888248  0.63512370    -0.05300
C575        C  0.22102808  0.86459777  0.65364577    -0.32300
C576        C  0.21725425  0.86131359  0.68418634     0.36800
H577        H  0.08145729  0.79687662  0.68827224     0.17100
O578        O  0.07860114  0.78863460  0.63275537    -0.59800
H579        H  0.26049200  0.88857151  0.64515859     0.17200
O580        O  0.26378406  0.88423525  0.70043816    -0.59900
H581        H  0.27796795  0.92249477  0.69902241     0.44200
H582        H  0.06331342  0.75067479  0.63615836     0.44100
C583        C  0.41950234  0.82955074  0.90296895    -0.05000
C584        C  0.39001912  0.84749551  0.91934174    -0.32400
C585        C  0.41479497  0.89841010  0.93165664     0.36900
C586        C  0.46951690  0.93356267  0.92611192    -0.05300
C587        C  0.49981704  0.91171159  0.91416990    -0.32300
C588        C  0.47543131  0.86110655  0.90218658     0.36800
H589        H  0.34725950  0.82280746  0.92167482     0.17100
O590        O  0.38461646  0.91469577  0.94734194    -0.59800
H591        H  0.04287319  0.93407195  0.91304377     0.17200
O592        O  0.50683739  0.84397496  0.88863665    -0.59900
H593        H  0.01219698  0.85775284  0.86850351     0.44200
H594        H  0.35811080  0.91443038  0.93328364     0.44100
C595        C  0.05159898  0.52530390  0.91992433    -0.05000
C596        C  0.05670605  0.51796118  0.88957153    -0.32400
C597        C  0.10619770  0.54147386  0.87591755     0.36900
C598        C  0.15197168  0.57671359  0.89174031    -0.05300
C599        C  0.14728783  0.58946903  0.92085187    -0.32300
C600        C  0.09770818  0.56493448  0.93493980     0.36800
H601        H  0.02225161  0.99135725  0.87654149     0.17100
O602        O  0.10920516  0.53091748  0.84676617    -0.59800
H603        H  0.18226130  0.61864789  0.93275366     0.17200
O604        O  0.09517766  0.58133723  0.96293436    -0.59900
H605        H  0.09815452  0.61625446  0.96098319     0.44200
H606        H  0.11198170  0.99851127  0.84632892     0.44100
C607        C  0.46363873  0.51853282  0.91937832    -0.05000
C608        C  0.47882103  0.57097364  0.92736529    -0.32400
C609        C  0.45549031  0.59794850  0.91434599     0.36900
C610        C  0.41612255  0.57324800  0.89246410    -0.05300
C611        C  0.40190348  0.52225860  0.88344149    -0.32300
C612        C  0.42674511  0.49590865  0.89537222     0.36800
H613        H  0.00925819  0.59139040  0.94402899     0.17100
O614        O  0.47146299  0.64842394  0.92326366    -0.59800
H615        H  0.37337545  0.50358258  0.86559644     0.17200
O616        O  0.41645479  0.94964842  0.88192577    -0.59900
H617        H  0.43265384  0.95886773  0.86222272     0.44200
H618        H  0.94761397  0.64533884  0.93971940     0.44100
C619        C  0.23703125  0.74919691  0.77324679    -0.05000
C620        C  0.20929895  0.76863578  0.78984880    -0.32400
C621        C  0.18397442  0.79330794  0.77677112     0.36900
C622        C  0.18621945  0.80046287  0.74594210    -0.05300
C623        C  0.21046027  0.77685361  0.72912516    -0.32300
C624        C  0.23674044  0.75283970  0.74248338     0.36800
H625        H  0.20773334  0.76568917  0.81350131     0.17100
O626        O  0.16049204  0.81397619  0.79478630    -0.59800
H627        H  0.21040571  0.77732607  0.70548735     0.17200
O628        O  0.26220163  0.73342390  0.72511533    -0.59900
H629        H  0.29828884  0.76358535  0.72185262     0.44200
H630        H  0.12704366  0.78353993  0.80157051     0.44100
C631        C  0.50114797  0.75562199  0.76981547    -0.05000
C632        C  0.51718594  0.72813599  0.75080712    -0.32400
C633        C  0.06785284  0.75313958  0.73778834     0.36900
C634        C  0.10359846  0.80751959  0.74302843    -0.05300
C635        C  0.08552171  0.83450256  0.76187165    -0.32300
C636        C  0.03538554  0.80915470  0.77500246     0.36800
H637        H  0.49142422  0.68646797  0.74716795     0.17100
O638        O  0.08369775  0.72338689  0.72150774    -0.59800
H639        H  0.11093486  0.87473015  0.76855756     0.17200
O640        O  0.02107118  0.83682387  0.79401392    -0.59900
H641        H  0.00238470  0.85048764  0.78169683     0.44200
H642        H  0.05884708  0.70953003  0.70442869     0.44100
C643        C  0.25146087  0.49648667  0.76542779    -0.05000
C644        C  0.21094253  0.98225372  0.74434623    -0.32400
C645        C  0.18336916  0.93070965  0.73287781     0.36900
C646        C  0.19596903  0.89217497  0.74274979    -0.05300
C647        C  0.24162708  0.90988601  0.76115664    -0.32300
C648        C  0.26809793  0.96055261  0.77279644     0.36800
H649        H  0.19863048  0.01016551  0.73795774     0.17100
O650        O  0.14336823  0.91789019  0.71249770    -0.59800
H651        H  0.25799157  0.88514515  0.76702451     0.17200
O652        O  0.30966412  0.47428899  0.79222477    -0.59900
H653        H  0.34186128  0.48626481  0.77991539     0.44200
H654        H  0.11469618  0.92100500  0.72287981     0.44100
O655        O  0.91802402  0.25901202  0.87535395    -0.78000
C656        C  0.89115606  0.10015265  0.87739992     0.83100
O657        O  0.90642075  0.20485946  0.77288022    -0.79100
O658        O  0.77136664  0.04149571  0.81045642    -0.80600
O659        O  0.72707544  0.15112162  0.87363400    -0.80400
O660        O  0.84297675  0.26315311  0.87762155    -0.79000
Zn661      Zn  0.90373692  0.19846450  0.84811160     1.55700
O662        O  0.72328097  0.07371487  0.86784708    -0.80400
Cd663      Cd  0.79363202  0.20093953  0.85024823     1.59700
Cd664      Cd  0.82843061  0.16535868  0.78863367     1.59600
O665        O  0.76632329  0.22805203  0.81687952    -0.80400
O666        O  0.83088610  0.16469729  0.83300060    -1.90900
Cd667      Cd  0.79276937  0.09116479  0.84590721     1.59900
O668        O  0.78689500  0.20304364  0.77471843    -0.80400
O669        O  0.84166985  0.07380002  0.87074647    -0.79000
C670        C  0.95129775  0.22776528  0.78648069     0.83500
C671        C  0.89179247  0.28076848  0.88481015     0.83200
O672        O  0.91961978  0.14782598  0.87020250    -0.78000
C673        C  0.70395853  0.10199307  0.87728508     0.84000
O674        O  0.95481357  0.22807965  0.81436461    -0.78100
C675        C  0.76518476  0.22549293  0.78893421     0.84100
C676        C  0.77209845  0.04545956  0.78275242     0.84500
O677        O  0.79062871  0.08950944  0.77033049    -0.80500
C678        C  0.66288857  0.33360793  0.73217637    -0.02000
C679        C  0.49503881  0.99326293  0.93359078    -0.01100
O680        O  0.99676625  0.40395105  0.46055398    -0.78000
C681        C  0.63373107  0.05546881  0.45430994     0.83100
O682        O  0.55179708  0.47013464  0.56291469    -0.79100
O683        O  0.58709360  0.13100875  0.51686063    -0.80600
O684        O  0.92283849  0.01977785  0.46229999    -0.80400
O685        O  0.91975403  0.40465320  0.46287610    -0.79000
Zn686      Zn  0.54668713  0.46448971  0.48757410     1.55700
O687        O  0.00089581  0.09331568  0.46193056    -0.80400
Cd688      Cd  0.93857862  0.47095609  0.48736250     1.59700
Cd689      Cd  0.01652539  0.51121885  0.54585075     1.59600
O690        O  0.88802407  0.44992513  0.52228873    -0.80400
O691        O  0.51368978  0.50462383  0.50162261    -1.90900
Cd692      Cd  0.55129059  0.07508471  0.48441208     1.59900
O693        O  0.93895173  0.47668535  0.56287139    -0.80400
O694        O  0.61068313  0.08279141  0.45683674    -0.79000
C695        C  0.56555699  0.43964209  0.55012207     0.83500
C696        C  0.94737608  0.38416062  0.45382017     0.83200
O697        O  0.61557718  0.01089557  0.46606399    -0.78000
C698        C  0.95157946  0.06721771  0.45500869     0.84000
O699        O  0.56390413  0.43385611  0.52229865    -0.78100
C700        C  0.89325876  0.45422047  0.55006515     0.84100
C701        C  0.58719004  0.13201209  0.54477391     0.84500
O702        O  0.56158719  0.09011104  0.55933238    -0.80500
C703        C  0.84365011  0.17340523  0.40043664    -0.02000
C704        C  0.67906803  0.34143857  0.60089297    -0.02000
O705        O  0.66290397  0.22645429  0.20240113    -0.78000
C706        C  0.53568530  0.26860032  0.21326971     0.83100
O707        O  0.62348048  0.24871334  0.10423244    -0.79100
O708        O  0.60305459  0.39226377  0.14823351    -0.80600
O709        O  0.75123155  0.42021094  0.20873027    -0.80400
O710        O  0.74187507  0.29889044  0.20818943    -0.79000
Zn711      Zn  0.61692980  0.24904896  0.17954374     1.55700
O712        O  0.67606501  0.42477518  0.20825516    -0.80400
Cd713      Cd  0.73198811  0.35281309  0.18414903     1.59700
Cd714      Cd  0.66300180  0.32456818  0.12246489     1.59600
O715        O  0.78731161  0.37660185  0.15126340    -0.80400
O716        O  0.65864078  0.32094419  0.16681720    -1.90900
Cd717      Cd  0.62477517  0.36176719  0.18225507     1.59900
O718        O  0.74337451  0.36158012  0.10882573    -0.80400
O719        O  0.55723832  0.31632445  0.20609124    -0.79000
C720        C  0.59378969  0.20487979  0.11622929     0.83500
C721        C  0.71089047  0.25025198  0.21211897     0.83200
O722        O  0.55504143  0.23954066  0.20510413    -0.78000
C723        C  0.72488075  0.44331125  0.21560733     0.84000
O724        O  0.58708479  0.20103084  0.14390788    -0.78100
C725        C  0.78713082  0.37915258  0.12344187     0.84100
C726        C  0.60483524  0.39035311  0.12039005     0.84500
O727        O  0.62514168  0.36569137  0.10694075    -0.80500
C728        C  0.49643911  0.99385535  0.06527035    -0.02000
C729        C  0.82551605  0.15525947  0.26819142    -0.02000
C730        C  0.94002623  0.45896926  0.07891154    -0.05000
C731        C  0.93624750  0.46147561  0.10971768    -0.32400
C732        C  0.88752848  0.43623283  0.12413730     0.36900
C733        C  0.83977410  0.40454120  0.10828268    -0.05300
C734        C  0.84332272  0.39704329  0.07802845    -0.32300
C735        C  0.89275785  0.42258106  0.06338736     0.36800
H736        H  0.97155965  0.48595768  0.12284001     0.17100
O737        O  0.88742956  0.44393637  0.15389134    -0.59800
H738        H  0.80772604  0.37028856  0.06567842     0.17200
O739        O  0.89482905  0.40779636  0.03489589    -0.59900
H740        H  0.86779750  0.41237596  0.02373047     0.44200
H741        H  0.88427477  0.47594581  0.15643891     0.44100
C742        C  0.51938910  0.05302006  0.07394289    -0.05000
C743        C  0.48846142  0.07152095  0.08886369    -0.32400
C744        C  0.51198597  0.12162727  0.10168966     0.36900
C745        C  0.56662917  0.15637491  0.09807374    -0.05300
C746        C  0.59590902  0.14186142  0.07925853    -0.32300
C747        C  0.57261735  0.09103142  0.06685383     0.36800
H748        H  0.94590625  0.04712139  0.09156983     0.17100
O749        O  0.48107946  0.13644804  0.11776750    -0.59800
H750        H  0.63789645  0.16874643  0.07569989     0.17200
O751        O  0.60404866  0.07726632  0.05054259    -0.59900
H752        H  0.60517653  0.09133598  0.03079582     0.44200
H753        H  0.97683072  0.11996279  0.13709450     0.44100
C754        C  0.53067790  0.47048960  0.07846371    -0.05000
C755        C  0.51782540  0.41887701  0.06976405    -0.32400
C756        C  0.54439903  0.39383794  0.08146322     0.36900
C757        C  0.58243687  0.41834459  0.10396431    -0.05300
C758        C  0.59378251  0.46807620  0.11401298    -0.32300
C759        C  0.56856096  0.49407192  0.10197460     0.36800
H760        H  0.48655947  0.39763874  0.05356666     0.17100
O761        O  0.52981750  0.34378990  0.07232487    -0.59800
H762        H  0.62119845  0.48638188  0.13235924     0.17200
O763        O  0.57665263  0.03906654  0.11614579    -0.59900
H764        H  0.61531520  0.06443274  0.11427826     0.44200
H765        H  0.55290667  0.34782822  0.05531009     0.44100
C766        C  0.73288228  0.22033439  0.22656218    -0.05000
C767        C  0.72714075  0.21137533  0.25668660    -0.32400
C768        C  0.75262702  0.18714466  0.27086507     0.36900
C769        C  0.78786904  0.17462946  0.25497325    -0.05300
C770        C  0.78747591  0.17850761  0.22404662    -0.32300
C771        C  0.76172306  0.20210424  0.21011410     0.36800
H772        H  0.70276684  0.22318441  0.26932764     0.17100
O773        O  0.74125560  0.17499024  0.29979936    -0.59800
H774        H  0.81055048  0.16618851  0.21061830     0.17200
O775        O  0.76576046  0.20801975  0.18030188    -0.59900
H776        H  0.79943130  0.24122474  0.17727153     0.44200
H777        H  0.70309446  0.14758242  0.30026044     0.44100
C778        C  0.80060217  0.09812495  0.25559662    -0.05000
C779        C  0.82572461  0.08409634  0.23326037    -0.32400
C780        C  0.80313833  0.03306403  0.22188975     0.36900
C781        C  0.75227378  0.49486129  0.23080904    -0.05300
C782        C  0.72506951  0.50854494  0.25154504    -0.32300
C783        C  0.74861566  0.05921391  0.26399281     0.36800
H784        H  0.86232276  0.11268084  0.22333119     0.17100
O785        O  0.82930358  0.02216972  0.20007543    -0.59800
H786        H  0.68505259  0.47993185  0.25798389     0.17200
O787        O  0.71980890  0.07091388  0.28372848    -0.59900
H788        H  0.71564875  0.04969651  0.30120453     0.44200
H789        H  0.85476184  0.01416052  0.21039937     0.44100
C790        C  0.48633453  0.24580344  0.23094692    -0.05000
C791        C  0.97384378  0.20247648  0.24822523    -0.32400
C792        C  0.92443787  0.17577587  0.26222435     0.36900
C793        C  0.88457761  0.19057741  0.25792992    -0.05300
C794        C  0.90123125  0.23908506  0.24428971    -0.32300
C795        C  0.95053545  0.26558872  0.23025075     0.36800
H796        H  0.50213710  0.18835029  0.25045915     0.17100
O797        O  0.91477927  0.13382174  0.27902251    -0.59800
H798        H  0.87573896  0.25653283  0.24357297     0.17200
O799        O  0.46236174  0.30990734  0.21513463    -0.59900
H800        H  0.94652833  0.29731112  0.19530137     0.44200
H801        H  0.91724733  0.10799590  0.26570838     0.44100
C802        C  0.84373373  0.17129072  0.36563704    -0.05000
C803        C  0.83804843  0.12650134  0.35023938    -0.32400
C804        C  0.82949630  0.11885644  0.31992064     0.36900
C805        C  0.83015240  0.15850192  0.30234411    -0.05300
C806        C  0.84279900  0.20603237  0.31683880    -0.32300
C807        C  0.84443904  0.21104519  0.34755079     0.36800
H808        H  0.83947265  0.09517227  0.36072421     0.17100
O809        O  0.82535703  0.07377442  0.30782353    -0.59800
H810        H  0.84683035  0.23863091  0.30417570     0.17200
O811        O  0.84336655  0.25398708  0.35905196    -0.59900
H812        H  0.80492810  0.24337728  0.36056595     0.44200
H813        H  0.79338602  0.04438620  0.31663153     0.44100
C814        C  0.68510462  0.07878957  0.43928013    -0.05000
C815        C  0.68811035  0.09102911  0.40961565    -0.32400
C816        C  0.73769166  0.12020159  0.39597446     0.36900
C817        C  0.78605798  0.13946445  0.41259402    -0.05300
C818        C  0.78133971  0.12777585  0.44288706    -0.32300
C819        C  0.73206062  0.09684406  0.45582673     0.36800
H820        H  0.65168053  0.07886406  0.39705934     0.17100
O821        O  0.73736310  0.13309498  0.36729924    -0.59800
H822        H  0.81652082  0.14340675  0.45689540     0.17200
O823        O  0.73004119  0.08782216  0.48532447    -0.59900
H824        H  0.73208763  0.05519855  0.48696847     0.44200
H825        H  0.72633429  0.10033814  0.35574470     0.44100
C826        C  0.91995247  0.33454136  0.43650455    -0.05000
C827        C  0.86542235  0.30127005  0.44098524    -0.32400
C828        C  0.83857160  0.25130584  0.42816807     0.36900
C829        C  0.86698524  0.23172622  0.41114012    -0.05300
C830        C  0.91959990  0.26899717  0.40286436    -0.32300
C831        C  0.94664583  0.31896276  0.41628346     0.36800
H832        H  0.84317674  0.31354296  0.45517505     0.17100
O833        O  0.78443557  0.22354232  0.43215531    -0.59800
H834        H  0.94153062  0.25733547  0.38805607     0.17200
O835        O  0.99921461  0.35182893  0.40973844    -0.59900
H836        H  0.01982215  0.34030180  0.42206846     0.44200
H837        H  0.76865675  0.23232118  0.41530609     0.44100
C838        C  0.87695592  0.14821161  0.41381291    -0.05000
C839        C  0.85387778  0.09272814  0.41222421    -0.32400
C840        C  0.87830530  0.06611993  0.42407916     0.36900
C841        C  0.92684569  0.09386478  0.43942934    -0.05300
C842        C  0.94918112  0.14793276  0.44300293    -0.32300
C843        C  0.92354634  0.17439641  0.43241225     0.36800
H844        H  0.81414390  0.06854719  0.40310773     0.17100
O845        O  0.85295280  0.51260172  0.42138573    -0.59800
H846        H  0.98455611  0.16958779  0.45668118     0.17200
O847        O  0.94133074  0.22331140  0.44430567    -0.59900
H848        H  0.91993039  0.21806892  0.46223466     0.44200
H849        H  0.86821445  0.50526211  0.40360436     0.44100
C850        C  0.73765345  0.37706068  0.58967712    -0.05000
C851        C  0.77664353  0.36215445  0.59610742    -0.32400
C852        C  0.82910461  0.38982932  0.58565576     0.36900
C853        C  0.84366771  0.43215202  0.56710817    -0.05300
C854        C  0.80603983  0.44719734  0.56006305    -0.32300
C855        C  0.75373055  0.42014954  0.57032809     0.36800
H856        H  0.76596253  0.32813792  0.60928849     0.17100
O857        O  0.86454483  0.37263431  0.59186170    -0.59800
H858        H  0.81640276  0.47860014  0.54481035     0.17200
O859        O  0.71872777  0.43442526  0.55892685    -0.59900
H860        H  0.71123506  0.42051767  0.53846737     0.44200
H861        H  0.88351846  0.39210101  0.60998920     0.44100
C862        C  0.66077064  0.28593121  0.58681337    -0.05000
C863        C  0.64362064  0.24046204  0.60374924    -0.32400
C864        C  0.62091076  0.19030406  0.59067929     0.36900
C865        C  0.61662918  0.18413157  0.55995374    -0.05300
C866        C  0.63975854  0.22930925  0.54301241    -0.32300
C867        C  0.66155949  0.27927647  0.55589493     0.36800
H868        H  0.64653406  0.24268536  0.62736854     0.17100
O869        O  0.10205825  0.14767302  0.60833926    -0.59800
H870        H  0.63942529  0.22625634  0.51930261     0.17200
O871        O  0.68240242  0.32151214  0.53784124    -0.59900
H872        H  0.65190600  0.31852918  0.52606787     0.44200
H873        H  0.13228595  0.14067559  0.61065219     0.44100
C874        C  0.58515966  0.41059762  0.56757354    -0.05000
C875        C  0.62201598  0.43566020  0.59049937    -0.32400
C876        C  0.64955952  0.41214048  0.60286183     0.36900
C877        C  0.64128960  0.36301527  0.59170373    -0.05300
C878        C  0.59707643  0.33485140  0.57252535    -0.32300
C879        C  0.57069068  0.35883257  0.55976081     0.36800
H880        H  0.63240219  0.47508077  0.59739652     0.17100
O881        O  0.68907526  0.44025293  0.62321863    -0.59800
H882        H  0.58318450  0.29454353  0.56630946     0.17200
O883        O  0.53054101  0.33123373  0.53960948    -0.59900
H884        H  0.54889440  0.33120152  0.52119761     0.44200
H885        H  0.67021261  0.43614012  0.64201290     0.44100
C886        C  0.49564551  0.99312469  0.03098011    -0.05000
C887        C  0.52833978  0.97933603  0.01421530    -0.32400
C888        C  0.52779483  0.97898070  0.98354226     0.36900
C889        C  0.49624846  0.99547507  0.96781294    -0.05300
C890        C  0.96426685  0.51032123  0.98449701    -0.32300
C891        C  0.96474317  0.51050368  0.01531439     0.36800
H892        H  0.55648321  0.97011625  0.02442294     0.17100
O893        O  0.55888557  0.96247640  0.96900425    -0.59800
H894        H  0.93722711  0.52078917  0.97402674     0.17200
O895        O  0.93506203  0.52844453  0.03010262    -0.59900
H896        H  0.89722475  0.50445121  0.02453857     0.44200
H897        H  0.59648451  0.98905033  0.97354156     0.44100
C898        C  0.66681940  0.33477251  0.69801935    -0.05000
C899        C  0.62122574  0.31348697  0.67957041    -0.32400
C900        C  0.62510763  0.31302175  0.64901584     0.36900
C901        C  0.67562559  0.33888254  0.63512317    -0.05300
C902        C  0.72102815  0.36460411  0.65364329    -0.32300
C903        C  0.71726000  0.36131810  0.68418381     0.36800
H904        H  0.58146341  0.29686295  0.68827558     0.17100
O905        O  0.57859958  0.28862456  0.63275885    -0.59800
H906        H  0.76048940  0.38858530  0.64515465     0.17200
O907        O  0.76379227  0.38424556  0.70043360    -0.59900
H908        H  0.77796995  0.42250400  0.69901864     0.44200
H909        H  0.56331739  0.25066506  0.63616056     0.44100
C910        C  0.91950149  0.32955012  0.90296407    -0.05000
C911        C  0.89001547  0.34748837  0.91933943    -0.32400
C912        C  0.91478722  0.39840213  0.93165544     0.36900
C913        C  0.96950690  0.43356032  0.92610876    -0.05300
C914        C  0.99981083  0.41171577  0.91416381    -0.32300
C915        C  0.97542947  0.36111166  0.90217962     0.36800
H916        H  0.84725684  0.32279560  0.92167401     0.17100
O917        O  0.88460667  0.41468139  0.94734390    -0.59800
H918        H  0.54286620  0.43408074  0.91303581     0.17200
O919        O  0.00683851  0.34398663  0.88862673    -0.59900
H920        H  0.51219474  0.35776728  0.86849377     0.44200
H921        H  0.85809594  0.41441196  0.93328767     0.44100
C922        C  0.55161861  0.02530050  0.91992959    -0.05000
C923        C  0.55672795  0.01795702  0.88957719    -0.32400
C924        C  0.60622030  0.04146671  0.87592424     0.36900
C925        C  0.65199430  0.07670408  0.89174753    -0.05300
C926        C  0.64731041  0.08945757  0.92085962    -0.32300
C927        C  0.59772936  0.06492547  0.93494672     0.36800
H928        H  0.52222891  0.49135864  0.87653668     0.17100
O929        O  0.60922833  0.03091096  0.84677284    -0.59800
H930        H  0.68228438  0.11863423  0.93276202     0.17200
O931        O  0.59519887  0.08132656  0.96294164    -0.59900
H932        H  0.59817206  0.11624254  0.96099094     0.44200
H933        H  0.61196332  0.49852047  0.84632250     0.44100
C934        C  0.96366378  0.01854147  0.91937602    -0.05000
C935        C  0.97884945  0.07098398  0.92736102    -0.32400
C936        C  0.95552031  0.09795939  0.91434033     0.36900
C937        C  0.91615319  0.07325846  0.89245804    -0.05300
C938        C  0.90193474  0.02226909  0.88343585    -0.32300
C939        C  0.92677332  0.99591810  0.89536861     0.36800
H940        H  0.50928517  0.09140009  0.94402522     0.17100
O941        O  0.97149204  0.14843465  0.92325794    -0.59800
H942        H  0.87340793  0.00359277  0.86559031     0.17200
O943        O  0.91642751  0.44963970  0.88192863    -0.59900
H944        H  0.93262596  0.45886038  0.86222523     0.44200
H945        H  0.44764020  0.14534864  0.93971323     0.44100
C946        C  0.73704326  0.24919247  0.77324215    -0.05000
C947        C  0.70931263  0.26863203  0.78984508    -0.32400
C948        C  0.68399054  0.29330741  0.77676872     0.36900
C949        C  0.68623737  0.30046632  0.74594014    -0.05300
C950        C  0.71047765  0.27685778  0.72912193    -0.32300
C951        C  0.73675337  0.25283814  0.74247887     0.36800
H952        H  0.70774597  0.26568308  0.81349746     0.17100
O953        O  0.66050783  0.31397413  0.79478483    -0.59800
H954        H  0.71042437  0.27733353  0.70548416     0.17200
O955        O  0.76220914  0.23341780  0.72510978    -0.59900
H956        H  0.79829517  0.26357833  0.72184276     0.44200
H957        H  0.62705864  0.28353728  0.80156796     0.44100
C958        C  0.00116183  0.25562307  0.76981410    -0.05000
C959        C  0.01720451  0.22813401  0.75081123    -0.32400
C960        C  0.56787190  0.25313760  0.73779321     0.36900
C961        C  0.60361392  0.30751968  0.74302924    -0.05300
C962        C  0.58553362  0.33450511  0.76186800    -0.32300
C963        C  0.53539611  0.30915808  0.77499733     0.36800
H964        H  0.99144595  0.18646456  0.74717565     0.17100
O965        O  0.58372031  0.22338302  0.72151712    -0.59800
H966        H  0.61094358  0.37473507  0.76855046     0.17200
O967        O  0.52107640  0.33683016  0.79400337    -0.59900
H968        H  0.50240653  0.35050393  0.78168061     0.44200
H969        H  0.55887281  0.20952348  0.70443689     0.44100
C970        C  0.75145914  0.99648539  0.76542577    -0.05000
C971        C  0.71095347  0.48225565  0.74434301    -0.32400
C972        C  0.68338474  0.43071202  0.73287371     0.36900
C973        C  0.69598195  0.39217728  0.74274908    -0.05300
C974        C  0.74163438  0.40988869  0.76116046    -0.32300
C975        C  0.76809856  0.46055413  0.77280250     0.36800
H976        H  0.69864343  0.51016730  0.73795109     0.17100
O977        O  0.64339128  0.41789355  0.71248888    -0.59800
H978        H  0.75799808  0.38514868  0.76703146     0.17200
O979        O  0.80967320  0.97428915  0.79221260    -0.59900
H980        H  0.84186462  0.98626591  0.77989854     0.44200
H981        H  0.61471228  0.42100008  0.72286806     0.44100
O982        O  0.91801771  0.75900944  0.87535798    -0.78000
C983        C  0.89112910  0.60014439  0.87740540     0.83100
O984        O  0.90640619  0.70486128  0.77288293    -0.79100
O985        O  0.77135974  0.54149680  0.81045868    -0.80600
O986        O  0.72706445  0.65113005  0.87363562    -0.80400
O987        O  0.84297405  0.76315698  0.87762699    -0.79000
Zn988      Zn  0.90372394  0.69846025  0.84811437     1.55700
O989        O  0.72325413  0.57371761  0.86783932    -0.80400
Cd990      Cd  0.79362514  0.70094668  0.85025236     1.59700
Cd991      Cd  0.82841634  0.66535953  0.78863699     1.59600
O992        O  0.76631837  0.72806416  0.81688493    -0.80400
O993        O  0.83087320  0.66469880  0.83300369    -1.90900
Cd994      Cd  0.79275040  0.59116554  0.84590895     1.59900
O995        O  0.78687834  0.70304370  0.77472403    -0.80400
O996        O  0.84164138  0.57379660  0.87075449    -0.79000
C997        C  0.95128396  0.72776255  0.78648280     0.83500
C998        C  0.89178954  0.78076893  0.88481513     0.83200
O999        O  0.91959801  0.64781524  0.87020452    -0.78000
C1000       C  0.70393742  0.60199923  0.87727985     0.84000
O1001       O  0.95480064  0.72807305  0.81436664    -0.78100
C1002       C  0.76517392  0.72549892  0.78893969     0.84100
C1003       C  0.77209324  0.54546045  0.78275470     0.84500
O1004       O  0.79061843  0.58951009  0.77033296    -0.80500
C1005       C  0.66287451  0.83360643  0.73217686    -0.02000
C1006       C  0.49502259  0.49325953  0.93358854    -0.01100
O1007       O  0.99676132  0.90394561  0.46054784    -0.78000
C1008       C  0.63372958  0.55547426  0.45431549     0.83100
O1009       O  0.55180685  0.97013182  0.56290979    -0.79100
O1010       O  0.58708148  0.63101014  0.51686170    -0.80600
O1011       O  0.92282615  0.51977508  0.46229890    -0.80400
O1012       O  0.91975140  0.90465123  0.46287578    -0.79000
Zn1013     Zn  0.54668720  0.96448285  0.48756871     1.55700
O1014       O  0.00088263  0.59331322  0.46192810    -0.80400
Cd1015     Cd  0.93858488  0.97095566  0.48736300     1.59700
Cd1016     Cd  0.01653573  0.01121763  0.54584881     1.59600
O1017       O  0.88803178  0.94992897  0.52228995    -0.80400
O1018       O  0.51369640  0.00462078  0.50162078    -1.90900
Cd1019     Cd  0.55128066  0.57508663  0.48441238     1.59900
O1020       O  0.93896295  0.97668476  0.56287128    -0.80400
O1021       O  0.61067833  0.58279435  0.45683982    -0.79000
C1022       C  0.56556310  0.93963704  0.55011645     0.83500
C1023       C  0.94737024  0.88415757  0.45381625     0.83200
O1024       O  0.61557788  0.51090265  0.46607100    -0.78000
C1025       C  0.95156580  0.56721455  0.45500640     0.84000
O1026       O  0.56390604  0.93384893  0.52229297    -0.78100
C1027       C  0.89326879  0.95422277  0.55006628     0.84100
C1028       C  0.58718036  0.63201270  0.54477506     0.84500
O1029       O  0.56157777  0.59011163  0.55933349    -0.80500
C1030       C  0.84363878  0.67340505  0.40043013    -0.02000
C1031       C  0.67907646  0.84143938  0.60089352    -0.02000
O1032       O  0.66287768  0.72645117  0.20240807    -0.78000
C1033       C  0.53566607  0.76860555  0.21327717     0.83100
O1034       O  0.62346148  0.74871145  0.10423987    -0.79100
O1035       O  0.60303065  0.89226658  0.14824277    -0.80600
O1036       O  0.75120136  0.92019945  0.20874880    -0.80400
O1037       O  0.74185715  0.79888084  0.20818516    -0.79000
Zn1038     Zn  0.61690604  0.74904920  0.17955032     1.55700
O1039       O  0.67604481  0.92478132  0.20826608    -0.80400
Cd1040     Cd  0.73196426  0.85281279  0.18415654     1.59700
Cd1041     Cd  0.66297290  0.82456734  0.12247258     1.59600
O1042       O  0.78728619  0.87661947  0.15126889    -0.80400
O1043       O  0.65861684  0.82094582  0.16682521    -1.90900
Cd1044     Cd  0.62475527  0.86177304  0.18226427     1.59900
O1045       O  0.74334450  0.86158906  0.10883206    -0.80400
O1046       O  0.55721980  0.81633039  0.20610035    -0.79000
C1047       C  0.59377226  0.70487676  0.11623607     0.83500
C1048       C  0.71086910  0.75024405  0.21211845     0.83200
O1049       O  0.55502010  0.73954499  0.20510980    -0.78000
C1050       C  0.72485694  0.94330764  0.21562359     0.84000
O1051       O  0.58706282  0.70102805  0.14391442    -0.78100
C1052       C  0.78710267  0.87916927  0.12344724     0.84100
C1053       C  0.60480208  0.89034837  0.12039913     0.84500
O1054       O  0.62510343  0.86568241  0.10694932    -0.80500
C1055       C  0.49646409  0.49385633  0.06526791    -0.02000
C1056       C  0.82549498  0.65524826  0.26818735    -0.02000
C1057       C  0.93999747  0.95897916  0.07891358    -0.05000
C1058       C  0.93621894  0.96149044  0.10971964    -0.32400
C1059       C  0.88749998  0.93625378  0.12413979     0.36900
C1060       C  0.83974450  0.90456189  0.10828630    -0.05300
C1061       C  0.84329084  0.89706373  0.07803179    -0.32300
C1062       C  0.89272552  0.92259737  0.06338972     0.36800
H1063       H  0.97153214  0.98597040  0.12284165     0.17100
O1064       O  0.88740256  0.94396211  0.15389343    -0.59800
H1065       H  0.80769259  0.87031107  0.06568223     0.17200
O1066       O  0.89479170  0.90781425  0.03489730    -0.59900
H1067       H  0.86776267  0.91240070  0.02373369     0.44200
H1068       H  0.88424515  0.97597063  0.15643907     0.44100
C1069       C  0.51940282  0.55301839  0.07394475    -0.05000
C1070       C  0.48846670  0.57150722  0.08886783    -0.32400
C1071       C  0.51198056  0.62161199  0.10169566     0.36900
C1072       C  0.56662134  0.65637047  0.09808012    -0.05300
C1073       C  0.59590876  0.64186792  0.07926367    -0.32300
C1074       C  0.57262764  0.59103974  0.06685669     0.36800
H1075       H  0.94591312  0.54710067  0.09157304     0.17100
O1076       O  0.48106548  0.63642088  0.11777431    -0.59800
H1077       H  0.63789421  0.66876091  0.07570511     0.17200
O1078       O  0.60406612  0.57728695  0.05054324    -0.59900
H1079       H  0.60518577  0.59135412  0.03079674     0.44200
H1080       H  0.97681993  0.61993578  0.13709975     0.44100
C1081       C  0.53064394  0.97048275  0.07847093    -0.05000
C1082       C  0.51778410  0.91886652  0.06977541    -0.32400
C1083       C  0.54435621  0.89382657  0.08147571     0.36900
C1084       C  0.58239993  0.91833690  0.10397376    -0.05300
C1085       C  0.59374972  0.96807099  0.11401993    -0.32300
C1086       C  0.56852886  0.99406672  0.10198088     0.36800
H1087       H  0.48651577  0.89762737  0.05357933     0.17100
O1088       O  0.52976910  0.84377536  0.07234125    -0.59800
H1089       H  0.62116898  0.98637915  0.13236461     0.17200
O1090       O  0.57668216  0.53906952  0.11614103    -0.59900
H1091       H  0.61534377  0.56443810  0.11427230     0.44200
H1092       H  0.55282042  0.84780720  0.05530894     0.44100
C1093       C  0.73286117  0.72032254  0.22655765    -0.05000
C1094       C  0.72708783  0.71132487  0.25667788    -0.32400
C1095       C  0.75257525  0.68709324  0.27085453     0.36900
C1096       C  0.78784504  0.67461202  0.25496602    -0.05300
C1097       C  0.78747713  0.67851898  0.22404065    -0.32300
C1098       C  0.76172973  0.70212325  0.21011020     0.36800
H1099       H  0.70269137  0.72310764  0.26931740     0.17100
O1100       O  0.74118129  0.67490678  0.29978390    -0.59800
H1101       H  0.81057031  0.66622142  0.21061322     0.17200
O1102       O  0.76579742  0.70807436  0.18030081    -0.59900
H1103       H  0.79946785  0.74128728  0.17728596     0.44200
H1104       H  0.70301814  0.64750128  0.30023385     0.44100
C1105       C  0.80059518  0.59811841  0.25558887    -0.05000
C1106       C  0.82571650  0.58411047  0.23324182    -0.32400
C1107       C  0.80314029  0.53308306  0.22186466     0.36900
C1108       C  0.75225761  0.99485868  0.23082564    -0.05300
C1109       C  0.72505288  0.00856285  0.25155102    -0.32300
C1110       C  0.74861945  0.55919252  0.26398978     0.36800
H1111       H  0.86230483  0.61270859  0.22330986     0.17100
O1112       O  0.82929763  0.52220919  0.20003683    -0.59800
H1113       H  0.68502687  0.97996340  0.25798420     0.17200
O1114       O  0.71981089  0.57087344  0.28373418    -0.59900
H1115       H  0.71564884  0.54963965  0.30120282     0.44200
H1116       H  0.85477504  0.51421077  0.21034817     0.44100
C1117       C  0.48631696  0.74580811  0.23095491    -0.05000
C1118       C  0.97382591  0.70247566  0.24822835    -0.32400
C1119       C  0.92441823  0.67576895  0.26222399     0.36900
C1120       C  0.88455917  0.69057332  0.25793301    -0.05300
C1121       C  0.90121571  0.73908838  0.24430134    -0.32300
C1122       C  0.95052082  0.76559615  0.23026366     0.36800
H1123       H  0.50211769  0.68834785  0.25045911     0.17100
O1124       O  0.91475726  0.63380577  0.27901424    -0.59800
H1125       H  0.87572328  0.75653641  0.24358880     0.17200
O1126       O  0.46234733  0.80991911  0.21515184    -0.59900
H1127       H  0.94650830  0.79732940  0.19531995     0.44200
H1128       H  0.91722112  0.60798446  0.26569425     0.44100
C1129       C  0.84371630  0.67128719  0.36563141    -0.05000
C1130       C  0.83805709  0.62650767  0.35023422    -0.32400
C1131       C  0.82949224  0.61885436  0.31991647     0.36900
C1132       C  0.83012189  0.65848814  0.30234012    -0.05300
C1133       C  0.84274131  0.70601170  0.31683472    -0.32300
C1134       C  0.84438627  0.71102606  0.34754644     0.36800
H1135       H  0.83951273  0.59519402  0.36071948     0.17100
O1136       O  0.82536403  0.57377673  0.30781965    -0.59800
H1137       H  0.84675160  0.73860264  0.30417208     0.17200
O1138       O  0.84329001  0.75395484  0.35904961    -0.59900
H1139       H  0.80484744  0.74333065  0.36055876     0.44200
H1140       H  0.79340683  0.54438366  0.31663475     0.44100
C1141       C  0.68510217  0.57879430  0.43928473    -0.05000
C1142       C  0.68810076  0.59100751  0.40961652    -0.32400
C1143       C  0.73767839  0.62017711  0.39597148     0.36900
C1144       C  0.78604861  0.63946516  0.41259073    -0.05300
C1145       C  0.78133764  0.62779617  0.44288635    -0.32300
C1146       C  0.73206180  0.59686884  0.45583067     0.36800
H1147       H  0.65166764  0.57882283  0.39705965     0.17100
O1148       O  0.73734041  0.63303738  0.36729060    -0.59800
H1149       H  0.81652252  0.64344111  0.45689262     0.17200
O1150       O  0.73004868  0.58786923  0.48533094    -0.59900
H1151       H  0.73208778  0.55524312  0.48698359     0.44200
H1152       H  0.72632337  0.60027131  0.35574759     0.44100
C1153       C  0.91994213  0.83454087  0.43649815    -0.05000
C1154       C  0.86541299  0.80126845  0.44098138    -0.32400
C1155       C  0.83856035  0.75130659  0.42816118     0.36900
C1156       C  0.86697292  0.73172802  0.41113123    -0.05300
C1157       C  0.91958071  0.76900376  0.40284826    -0.32300
C1158       C  0.94662906  0.81896816  0.41626921     0.36800
H1159       H  0.84316958  0.81353935  0.45517427     0.17100
O1160       O  0.78442295  0.72354656  0.43214464    -0.59800
H1161       H  0.94150739  0.75734576  0.38803469     0.17200
O1162       O  0.99919408  0.85183865  0.40971855    -0.59900
H1163       H  0.01980911  0.84031409  0.42204397     0.44200
H1164       H  0.76864941  0.73232405  0.41529242     0.44100
C1165       C  0.87694621  0.64821112  0.41380491    -0.05000
C1166       C  0.85385971  0.59272597  0.41222311    -0.32400
C1167       C  0.87828170  0.56611526  0.42408258     0.36900
C1168       C  0.92683085  0.59386041  0.43942528    -0.05300
C1169       C  0.94918090  0.64793205  0.44298613    -0.32300
C1170       C  0.92355178  0.67439960  0.43239291     0.36800
H1171       H  0.81412734  0.56854786  0.40310364     0.17100
O1172       O  0.85298838  0.01260798  0.42137227    -0.59800
H1173       H  0.98456785  0.66959110  0.45665518     0.17200
O1174       O  0.94136791  0.72333092  0.44426900    -0.59900
H1175       H  0.91999134  0.71811870  0.46220454     0.44200
H1176       H  0.86826154  0.00528403  0.40359056     0.44100
C1177       C  0.73766399  0.87706359  0.58967990    -0.05000
C1178       C  0.77665256  0.86215414  0.59610788    -0.32400
C1179       C  0.82911295  0.88982667  0.58565454     0.36900
C1180       C  0.84367913  0.93215499  0.56711080    -0.05300
C1181       C  0.80605413  0.94720598  0.56006972    -0.32300
C1182       C  0.75374426  0.92015729  0.57033383     0.36800
H1183       H  0.76596969  0.82813447  0.60928648     0.17100
O1184       O  0.86454837  0.87262280  0.59185393    -0.59800
H1185       H  0.81641898  0.97861283  0.54481963     0.17200
O1186       O  0.71874412  0.93443686  0.55893342    -0.59900
H1187       H  0.71124035  0.92051858  0.53847611     0.44200
H1188       H  0.88354253  0.89209955  0.60997486     0.44100
C1189       C  0.66078024  0.78593163  0.58681482    -0.05000
C1190       C  0.64361541  0.74046079  0.60375105    -0.32400
C1191       C  0.62089780  0.69030251  0.59068114     0.36900
C1192       C  0.61662492  0.68413106  0.55995542    -0.05300
C1193       C  0.63977084  0.72930900  0.54301445    -0.32300
C1194       C  0.66157873  0.77927684  0.55589691     0.36800
H1195       H  0.64652062  0.74268266  0.62737056     0.17100
O1196       O  0.10202416  0.64766992  0.60834209    -0.59800
H1197       H  0.63944544  0.72625623  0.51930481     0.17200
O1198       O  0.68243637  0.82151304  0.53784349    -0.59900
H1199       H  0.65194591  0.81854033  0.52606867     0.44200
H1200       H  0.13224653  0.64066774  0.61066593     0.44100
C1201       C  0.58516731  0.91059335  0.56756752    -0.05000
C1202       C  0.62201765  0.93565464  0.59049612    -0.32400
C1203       C  0.64956143  0.91213650  0.60286008     0.36900
C1204       C  0.64129832  0.86301439  0.59170074    -0.05300
C1205       C  0.59709076  0.83485103  0.57251859    -0.32300
C1206       C  0.57070423  0.85883046  0.55975305     0.36800
H1207       H  0.63239896  0.97507326  0.59739475     0.17100
O1208       O  0.68907176  0.94024834  0.62321973    -0.59800
H1209       H  0.58320281  0.79454465  0.56630101     0.17200
O1210       O  0.53055867  0.83123151  0.53959957    -0.59900
H1211       H  0.54891590  0.83120206  0.52118877     0.44200
H1212       H  0.67020425  0.93613298  0.64201256     0.44100
C1213       C  0.49566498  0.49313052  0.03097781    -0.05000
C1214       C  0.52836053  0.47934972  0.01420877    -0.32400
C1215       C  0.52780135  0.47898755  0.98353570     0.36900
C1216       C  0.49624153  0.49547130  0.96781066    -0.05300
C1217       C  0.96427391  0.01033162  0.98449493    -0.32300
C1218       C  0.96473785  0.01050960  0.01531234     0.36800
H1219       H  0.55651333  0.47013892  0.02441301     0.17100
O1220       O  0.55889220  0.46248816  0.96899344    -0.59800
H1221       H  0.93724356  0.02080806  0.97402129     0.17200
O1222       O  0.93506131  0.02846042  0.03009654    -0.59900
H1223       H  0.89722470  0.00447886  0.02452633     0.44200
H1224       H  0.59649129  0.48906730  0.97352623     0.44100
C1225       C  0.66681097  0.83477360  0.69801982    -0.05000
C1226       C  0.62122064  0.81349476  0.67956877    -0.32400
C1227       C  0.62510717  0.81302796  0.64901437     0.36900
C1228       C  0.67562793  0.83888265  0.63512374    -0.05300
C1229       C  0.72102813  0.86459768  0.65364579    -0.32300
C1230       C  0.71725444  0.86131342  0.68418634     0.36800
H1231       H  0.58145751  0.79687660  0.68827234     0.17100
O1232       O  0.57860117  0.78863474  0.63275547    -0.59800
H1233       H  0.76049206  0.88857124  0.64515859     0.17200
O1234       O  0.76378436  0.88423491  0.70043808    -0.59900
H1235       H  0.77796840  0.92249441  0.69902237     0.44200
H1236       H  0.56331353  0.75067489  0.63615833     0.44100
C1237       C  0.91950222  0.82955048  0.90296930    -0.05000
C1238       C  0.89001890  0.84749551  0.91934181    -0.32400
C1239       C  0.91479479  0.89841021  0.93165662     0.36900
C1240       C  0.96951681  0.93356265  0.92611205    -0.05300
C1241       C  0.99981693  0.91171132  0.91417037    -0.32300
C1242       C  0.97543124  0.86110616  0.90218722     0.36800
H1243       H  0.84725921  0.82280761  0.92167473     0.17100
O1244       O  0.88461628  0.91469610  0.94734173    -0.59800
H1245       H  0.54287328  0.93407233  0.91304314     0.17200
O1246       O  0.00683747  0.84397439  0.88863767    -0.59900
H1247       H  0.51219655  0.85775350  0.86850258     0.44200
H1248       H  0.85811083  0.91443080  0.93328332     0.44100
C1249       C  0.55159861  0.52530372  0.91992423    -0.05000
C1250       C  0.55670583  0.51796044  0.88957153    -0.32400
C1251       C  0.60619758  0.54147270  0.87591769     0.36900
C1252       C  0.65197143  0.57671302  0.89174035    -0.05300
C1253       C  0.64728737  0.58946920  0.92085172    -0.32300
C1254       C  0.59770767  0.56493469  0.93493959     0.36800
H1255       H  0.52225119  0.99135834  0.87654134     0.17100
O1256       O  0.60920524  0.53091523  0.84676651    -0.59800
H1257       H  0.68226072  0.61864847  0.93275343     0.17200
O1258       O  0.59517692  0.58133768  0.96293404    -0.59900
H1259       H  0.59815433  0.61625522  0.96098269     0.44200
H1260       H  0.61198153  0.99851349  0.84632796     0.44100
C1261       C  0.96363894  0.51853262  0.91937849    -0.05000
C1262       C  0.97882128  0.57097350  0.92736536    -0.32400
C1263       C  0.95549054  0.59794827  0.91434599     0.36900
C1264       C  0.91612262  0.57324756  0.89246420    -0.05300
C1265       C  0.90190349  0.52225809  0.88344171    -0.32300
C1266       C  0.92674512  0.49590821  0.89537248     0.36800
H1267       H  0.50925781  0.59139039  0.94402899     0.17100
O1268       O  0.97146341  0.64842385  0.92326345    -0.59800
H1269       H  0.87337537  0.50358190  0.86559671     0.17200
O1270       O  0.91645535  0.94964873  0.88192574    -0.59900
H1271       H  0.93265447  0.95886818  0.86222257     0.44200
H1272       H  0.44761370  0.64533865  0.93971966     0.44100
C1273       C  0.73703101  0.74919660  0.77324712    -0.05000
C1274       C  0.70929861  0.76863545  0.78984901    -0.32400
C1275       C  0.68397445  0.79330792  0.77677126     0.36900
C1276       C  0.68621970  0.80046288  0.74594224    -0.05300
C1277       C  0.71046058  0.77685361  0.72912539    -0.32300
C1278       C  0.73674059  0.75283961  0.74248371     0.36800
H1279       H  0.70773266  0.76568863  0.81350151     0.17100
O1280       O  0.66049210  0.81397627  0.79478637    -0.59800
H1281       H  0.71040628  0.77732620  0.70548759     0.17200
O1282       O  0.76220198  0.73342395  0.72511576    -0.59900
H1283       H  0.79828967  0.76358552  0.72185345     0.44200
H1284       H  0.62704345  0.78353995  0.80157049     0.44100
C1285       C  0.00114774  0.75562149  0.76981560    -0.05000
C1286       C  0.01718559  0.72813562  0.75080705    -0.32400
C1287       C  0.56785320  0.75313977  0.73778847     0.36900
C1288       C  0.60359884  0.80751978  0.74302845    -0.05300
C1289       C  0.58552201  0.83450294  0.76187149    -0.32300
C1290       C  0.53538577  0.80915523  0.77500222     0.36800
H1291       H  0.99142387  0.68646762  0.74716782     0.17100
O1292       O  0.58369800  0.72338692  0.72150794    -0.59800
H1293       H  0.61093514  0.87473058  0.76855729     0.17200
O1294       O  0.52107132  0.83682459  0.79401347    -0.59900
H1295       H  0.50238466  0.85048794  0.78169629     0.44200
H1296       H  0.55884742  0.70953023  0.70442882     0.44100
C1297       C  0.75146104  0.49648658  0.76542800    -0.05000
C1298       C  0.71094304  0.98225384  0.74434606    -0.32400
C1299       C  0.68336974  0.93070974  0.73287765     0.36900
C1300       C  0.69596952  0.89217505  0.74274976    -0.05300
C1301       C  0.74162757  0.90988611  0.76115661    -0.32300
C1302       C  0.76809847  0.96055282  0.77279631     0.36800
H1303       H  0.69863098  0.01016562  0.73795751     0.17100
O1304       O  0.64336898  0.91789021  0.71249744    -0.59800
H1305       H  0.75799194  0.88514519  0.76702459     0.17200
O1306       O  0.80966429  0.47428898  0.79222501    -0.59900
H1307       H  0.84186135  0.48626481  0.77991569     0.44200
H1308       H  0.61469667  0.92100501  0.72287951     0.44100
loop_ 
_geom_bond_atom_site_label_1 
_geom_bond_atom_site_label_2 
_geom_bond_distance 
_geom_bond_site_symmetry_2 
_ccdc_geom_bond_type 
O1           C17   1.274       .  A
O1           Zn7   2.018       .  S
C2           O18   1.276       .  A
C2           O15   1.273       .  A
C2          C283   1.478       .  S
O3           C16   1.277       .  A
O3          Cd10   2.088       .  S
O4           C22   1.271       .  A
O4          Cd13   2.037       .  S
O5           C19   1.271       .  A
O5           Cd9   2.061       .  S
O6           C17   1.273       .  A
O6           Cd9   2.067       .  S
Zn7          O18   2.038       .  S
Zn7          O20   2.020       .  S
Zn7          O12   1.942       .  S
O8           C19   1.273       .  A
O8          Cd13   2.065       .  S
Cd9          O11   2.054       .  S
Cd9          O12   1.996       .  S
Cd10         O14   2.090       .  S
Cd10         O23   2.095       .  S
Cd10         O12   2.026       .  S
O11          C21   1.275       .  A
O12         Cd13   1.983       .  S
Cd13         O15   2.058       .  S
O14          C21   1.277       .  A
C16          O20   1.276       .  A
C16         C304   1.474       .  S
C17         C256   1.485       .  S
C19         C271   1.465       .  S
C21         C292   1.489       .  S
C22          O23   1.276       .  A
C22         C316   1.471   1_545  S
C24         C244   1.562       .  S
C24         C295   1.566       .  S
C24         C307   1.570       .  S
C24         C319   1.567       .  S
C25         C235   1.561       .  S
C25         C268   1.561   1_665  S
C25        C1240   1.562       .  S
C25         C934   1.567   1_565  S
O26          C42   1.276       .  A
O26        Zn686   2.036       .  S
C27          O43   1.276       .  A
C27          O40   1.270       .  A
C27         C160   1.464       .  S
O28          C41   1.275       .  A
O28        Cd689   2.078       .  S
O29          C47   1.273       .  A
O29         Cd38   2.048       .  S
O30          C44   1.273       .  A
O30        Cd361   2.064   1_545  S
O31          C42   1.273       .  A
O31         Cd34   2.052       .  S
Zn32         O45   2.012       .  S
Zn32        O680   2.036   1_455  S
Zn32        O370   2.034       .  S
Zn32         O37   1.940       .  S
O33          C44   1.272       .  A
O33        Cd692   2.052       .  S
Cd34         O36   2.047       .  S
Cd34        O357   2.064       .  S
Cd34        O691   1.983       .  S
Cd35         O39   2.100       .  S
Cd35        O682   2.078       .  S
Cd35       O1029   2.102       .  S
Cd35        O691   2.021       .  S
O36          C46   1.273       .  A
O37        Cd688   1.983   1_455  S
O37        Cd689   2.021       .  S
O37        Cd365   1.982       .  S
Cd38         O40   2.044       .  S
Cd38        O687   2.052       .  S
Cd38        O364   1.982       .  S
O39          C46   1.278       .  A
C41          O45   1.275       .  A
C41         C220   1.474       .  S
C42         C172   1.482       .  S
O43        Zn359   2.034   1_545  S
C44         C187   1.478       .  S
C46         C199   1.472       .  S
C47          O48   1.280       .  A
C47         C211   1.491       .  S
O48       Cd1016   2.102       .  S
C49         C148   1.588       .  S
C49         C163   1.562       .  S
C49         C175   1.568       .  S
C49         C184   1.595       .  S
C50         C196   1.575       .  S
C50         C208   1.569       .  S
C50         C223   1.561       .  S
C50         C247   1.566       .  S
O51          C67   1.275       .  A
O51         Zn57   2.038       .  S
C52          O68   1.276       .  A
C52          O65   1.272       .  A
C52         C136   1.482   1_455  S
O53          C66   1.277       .  A
O53         Cd60   2.094       .  S
O54          C72   1.273       .  A
O54         Cd63   2.048       .  S
O55          C69   1.275       .  A
O55         Cd59   2.078       .  S
O56          C67   1.274       .  A
O56         Cd59   2.072       .  S
Zn57         O68   2.031       .  S
Zn57         O70   2.023       .  S
Zn57         O62   1.946       .  S
O58          C69   1.272       .  A
O58         Cd63   2.059       .  S
Cd59         O61   2.053       .  S
Cd59         O62   1.993       .  S
Cd60         O64   2.112       .  S
Cd60         O73   2.111       .  S
Cd60         O62   2.029       .  S
O61          C71   1.273       .  A
O62         Cd63   1.998       .  S
Cd63         O65   2.059       .  S
O64          C71   1.280       .  A
C66          O70   1.276       .  A
C66          C91   1.479       .  S
C67         C112   1.473       .  S
C69         C127   1.477       .  S
C71          C79   1.495       .  S
C72          O73   1.280       .  A
C72         C103   1.480       .  S
C74          C88   1.567   1_665  S
C74         C232   1.564       .  S
C74        C1057   1.568       .  S
C74         C427   1.573   1_655  S
C75         C115   1.572       .  S
C75         C124   1.562       .  S
C75         C139   1.570       .  S
C75         C151   1.561       .  S
C76        C1055   1.568       .  S
C76          C77   1.413       .  A
C76          C81   1.425       .  A
C77          C78   1.393       .  A
C77          H82   1.082       .  S
C78          C79   1.411       .  A
C78          O83   1.372       .  S
C79          C80   1.405       .  A
C80          C81   1.414       .  A
C80          H84   1.083       .  S
C81          O85   1.373       .  S
O83          H87   0.992       .  S
O85          H86   0.992       .  S
C88          C89   1.417   1_455  A
C88          C93   1.423       .  A
C89          C90   1.398   1_655  A
C89         H748   1.080       .  S
C90          C91   1.402       .  A
C90          O95   1.372   1_455  S
C91          C92   1.402       .  A
C92          C93   1.408       .  A
C92          H96   1.083       .  S
C93          O97   1.371       .  S
H94         C743   1.080       .  S
O95         H753   0.992       .  S
O97          H98   0.992       .  S
H99         O749   0.992       .  S
C100        C401   1.573   1_455  S
C100        C101   1.420       .  A
C100        C105   1.430       .  A
C101        C102   1.404       .  A
C101        H106   1.083   1_455  S
C102        C103   1.401       .  A
C102        O107   1.371       .  S
C103        C104   1.398       .  A
C104        C105   1.402       .  A
C104        H108   1.084       .  S
C105        O436   1.372       .  S
O107        H111   0.992       .  S
O109        C432   1.372   1_545  S
O109        H110   0.993       .  S
C112        C113   1.399       .  A
C112        C117   1.399       .  A
C113        C114   1.409       .  A
C113        H118   1.084       .  S
C114        C115   1.429       .  A
C114        O119   1.371       .  S
C115        C116   1.418       .  A
C116        C117   1.396       .  A
C116        H120   1.083       .  S
C117        O121   1.372       .  S
O119        H123   0.992       .  S
O121        H122   0.992       .  S
C124        C125   1.416       .  A
C124        C129   1.422       .  A
C125        C126   1.396       .  A
C125        H130   1.078       .  S
C126        C454   1.403   1_545  A
C126        O131   1.372       .  S
C127        C128   1.401       .  A
C127        C453   1.403       .  A
C128        C456   1.404       .  A
C128        H132   1.084       .  S
C129        C455   1.404       .  A
C129        O133   1.372       .  S
O131        H135   0.992       .  S
O133        H134   0.991       .  S
C136        C791   1.399       .  A
C136        C795   1.408       .  A
C137        C138   1.401       .  A
C137        C790   1.399       .  A
C137        H796   1.084       .  S
C138        C139   1.424       .  A
C138        O143   1.371       .  S
C139        C140   1.417       .  A
C140        C141   1.400       .  A
C140        H144   1.081       .  S
C141        C790   1.408       .  A
C141        O799   1.372       .  S
H142        C791   1.084   1_455  S
O143        H147   0.992       .  S
O145        C795   1.372       .  S
O145        H800   0.992       .  S
H146        O799   0.992       .  S
C148        C149   1.415       .  A
C148        C153   1.433       .  A
C149        C150   1.399       .  A
C149        H154   1.062       .  S
C150        C151   1.418       .  A
C150        O155   1.374       .  S
C151        C152   1.408       .  A
C152        C153   1.404       .  A
C152        H156   1.084       .  S
C153        O157   1.370       .  S
O155        H159   0.992       .  S
O157        H158   0.992       .  S
C160        C161   1.398       .  A
C160        C165   1.397       .  A
C161        C162   1.404       .  A
C161        H166   1.084       .  S
C162        C163   1.427       .  A
C162        O167   1.370       .  S
C163        C164   1.421       .  A
C164        C165   1.391       .  A
C164        H168   1.083       .  S
C165        O169   1.372       .  S
O167        H171   0.992       .  S
O169        H170   0.992       .  S
C172        C173   1.398       .  A
C172        C177   1.406       .  A
C173        C174   1.394       .  A
C173        H178   1.084       .  S
C174        C175   1.430       .  A
C174        O179   1.370       .  S
C175        C176   1.420       .  A
C176        C177   1.406       .  A
C176        H180   1.084       .  S
C177        O181   1.371       .  S
O179        H183   0.992       .  S
O181        H182   0.992       .  S
C184        C185   1.425       .  A
C184        C189   1.437       .  A
C185        C186   1.395       .  A
C185        H190   1.083       .  S
C186        C187   1.400       .  A
C186        O518   1.372       .  S
C187        C188   1.395       .  A
C188        C189   1.397       .  A
C188        H192   1.084       .  S
C189        O193   1.366       .  S
O191        C513   1.372       .  S
O191        H195   0.992       .  S
O193        H194   0.992       .  S
C196        C197   1.420       .  A
C196        C201   1.435       .  A
C197        C198   1.404       .  A
C197        H202   1.084       .  S
C198        C199   1.401       .  A
C198        O203   1.371       .  S
C199        C200   1.392       .  A
C200        C201   1.397       .  A
C200        H204   1.085       .  S
C201        O205   1.370       .  S
O203        H207   0.992       .  S
O205        H206   0.992       .  S
C208        C209   1.419       .  A
C208        C213   1.422       .  A
C209        C210   1.404       .  A
C209        H214   1.079       .  S
C210        C211   1.408       .  A
C210        O869   1.371       .  S
C211        C212   1.404       .  A
C212        C213   1.398       .  A
C212        H216   1.083       .  S
C213        O217   1.372       .  S
O215        C864   1.371       .  S
O215        H219   0.991       .  S
O217        H218   0.993       .  S
C220        C221   1.400       .  A
C220        C225   1.403       .  A
C221        C222   1.403       .  A
C221        H226   1.083       .  S
C222        C223   1.425       .  A
C222        O227   1.372       .  S
C223        C224   1.415       .  A
C224        C225   1.395       .  A
C224        H228   1.078       .  S
C225        O229   1.373       .  S
O227        H231   0.992       .  S
O229        H230   0.992       .  S
C232        C233   1.412   1_655  A
C232       C1218   1.420   1_565  A
C233        C234   1.399   1_554  A
C233        H238   1.078       .  S
C234        C235   1.418   1_455  A
C234        O239   1.373       .  S
C235       C1217   1.412   1_565  A
C236        C237   1.406   1_556  A
C236       C1216   1.412       .  A
C236        H240   1.079       .  S
C237       C1213   1.420       .  A
C237        O241   1.374       .  S
O239        H243   0.992       .  S
O241        H242   0.991       .  S
C244        C245   1.410       .  A
C244        C249   1.420       .  A
C245        C246   1.399       .  A
C245        H250   1.077       .  S
C246        C247   1.422       .  A
C246        O251   1.373       .  S
C247        C248   1.411       .  A
C248        C249   1.399       .  A
C248        H252   1.076       .  S
C249        O253   1.373       .  S
O251        H255   0.992       .  S
O253        H254   0.992       .  S
C256        C257   1.406       .  A
C256        C261   1.407       .  A
C257        C258   1.407       .  A
C257        H262   1.083       .  S
C258        C259   1.420       .  A
C258        O263   1.374       .  S
C259       C1006   1.562       .  S
C259        C260   1.415       .  A
C260        C261   1.394       .  A
C260        H918   1.080       .  S
C261        O265   1.372       .  S
O263        H267   0.992       .  S
H264        C914   1.080   1_455  S
O265        H920   0.992       .  S
H266        O919   0.992       .  S
C268        C269   1.416       .  A
C268        C273   1.426       .  A
C269        C270   1.392       .  A
C269        H601   1.080   1_545  S
C270        C271   1.398       .  A
C270        O275   1.372       .  S
C271        C272   1.398       .  A
C272        C273   1.404       .  A
C272        H276   1.084       .  S
C273        O277   1.371       .  S
H274        C596   1.080       .  S
O275        H606   0.992   1_545  S
O277        H278   0.991       .  S
H279        O602   0.992       .  S
C280        C679   1.567   1_545  S
C280        C281   1.418       .  A
C280        C285   1.429   1_545  A
C281        C282   1.402       .  A
C281        H940   1.081       .  S
C282        C283   1.402       .  A
C282        O287   1.371       .  S
C283        C284   1.397       .  A
C284        C285   1.400   1_545  A
C284        H288   1.084       .  S
C285        O616   1.372       .  S
H286        C935   1.081   1_455  S
O287        H945   0.992       .  S
O289        C612   1.372       .  S
O289        H290   0.992       .  S
H291        O941   0.992       .  S
C292        C293   1.402       .  A
C292        C297   1.410       .  A
C293        C294   1.393       .  A
C293        H298   1.083       .  S
C294        C295   1.423       .  A
C294        O299   1.372       .  S
C295        C296   1.417       .  A
C296        C297   1.405       .  A
C296        H300   1.079       .  S
C297        O301   1.371       .  S
O299        H303   0.992       .  S
O301        H302   0.992       .  S
C304        C305   1.398       .  A
C304        C963   1.400       .  A
C305        C960   1.406       .  A
C305        H310   1.084       .  S
C306        C307   1.426       .  A
C306        C959   1.406       .  A
C306        O311   1.374       .  S
C307        C308   1.419       .  A
C308        C309   1.397       .  A
C308        H312   1.077       .  S
C309        C958   1.400       .  A
C309        O313   1.372       .  S
O311        H315   0.992       .  S
O313        H314   0.992       .  S
C316        C644   1.400       .  A
C316        C648   1.400       .  A
C317        C318   1.408       .  A
C317        C643   1.400       .  A
C317        H322   1.083       .  S
C318        C319   1.426       .  A
C318        O323   1.373       .  S
C319        C320   1.417       .  A
C320        C321   1.390       .  A
C320        H324   1.078       .  S
C321        C643   1.400       .  A
C321        O652   1.373       .  S
O323        H327   0.992       .  S
O325        C648   1.373       .  S
O325        H326   0.991       .  S
O328        C344   1.274       .  A
O328       Zn334   2.018       .  S
C329        O345   1.276       .  A
C329        O342   1.273       .  A
C329        C610   1.478       .  S
O330        C343   1.277       .  A
O330       Cd337   2.088       .  S
O331        C349   1.271       .  A
O331       Cd340   2.037       .  S
O332        C346   1.271       .  A
O332       Cd336   2.061       .  S
O333        C344   1.273       .  A
O333       Cd336   2.067       .  S
Zn334       O345   2.038       .  S
Zn334       O347   2.020       .  S
Zn334       O339   1.942       .  S
O335        C346   1.273       .  A
O335       Cd340   2.065       .  S
Cd336       O338   2.054       .  S
Cd336       O339   1.996       .  S
Cd337       O341   2.090       .  S
Cd337       O350   2.095       .  S
Cd337       O339   2.026       .  S
O338        C348   1.275       .  A
O339       Cd340   1.983       .  S
Cd340       O342   2.058       .  S
O341        C348   1.277       .  A
C343        O347   1.276       .  A
C343        C631   1.474       .  S
C344        C583   1.485       .  S
C346        C598   1.465       .  S
C348        C619   1.489       .  S
C349        O350   1.276       .  A
C349        C643   1.471       .  S
C351        C571   1.562       .  S
C351        C622   1.566       .  S
C351        C634   1.570       .  S
C351        C646   1.567       .  S
C352        C562   1.561       .  S
C352        C913   1.562       .  S
C352        C595   1.561   1_655  S
C352       C1261   1.567       .  S
O353        C369   1.276       .  A
O353      Zn1013   2.036       .  S
C354        O370   1.276       .  A
C354        O367   1.270       .  A
C354        C487   1.464       .  S
O355        C368   1.275       .  A
O355      Cd1016   2.078   1_565  S
O356        C374   1.273       .  A
O356       Cd365   2.048       .  S
O357        C371   1.273       .  A
O358        C369   1.273       .  A
O358       Cd361   2.052       .  S
Zn359      O1007   2.036   1_455  S
Zn359       O372   2.012       .  S
Zn359       O364   1.940   1_565  S
O360        C371   1.272       .  A
O360      Cd1019   2.052       .  S
Cd361       O363   2.047       .  S
Cd361      O1018   1.983   1_565  S
Cd362      O1009   2.078   1_545  S
Cd362       O366   2.100   1_545  S
Cd362       O702   2.102       .  S
Cd362      O1018   2.021       .  S
O363        C373   1.273       .  A
O364      Cd1015   1.983   1_445  S
O364      Cd1016   2.021       .  S
Cd365      O1014   2.052       .  S
Cd365       O367   2.044       .  S
O366        C373   1.278       .  A
C368        O372   1.275       .  A
C368        C547   1.474       .  S
C369        C499   1.482       .  S
C371        C514   1.479       .  S
C373        C526   1.472       .  S
C374        O375   1.280       .  A
C374        C538   1.491       .  S
O375       Cd689   2.102       .  S
C376        C475   1.588       .  S
C376        C490   1.562       .  S
C376        C502   1.568       .  S
C376        C511   1.595       .  S
C377        C523   1.575       .  S
C377        C535   1.569       .  S
C377        C550   1.561       .  S
C377        C574   1.566       .  S
O378        C394   1.275       .  A
O378       Zn384   2.038       .  S
C379        O395   1.276       .  A
C379        O392   1.272       .  A
C379        C463   1.482   1_455  S
O380        C393   1.277       .  A
O380       Cd387   2.094       .  S
O381        C399   1.273       .  A
O381       Cd390   2.048       .  S
O382        C396   1.275       .  A
O382       Cd386   2.078       .  S
O383        C394   1.274       .  A
O383       Cd386   2.072       .  S
Zn384       O395   2.031       .  S
Zn384       O397   2.023       .  S
Zn384       O389   1.946       .  S
O385        C396   1.272       .  A
O385       Cd390   2.059       .  S
Cd386       O388   2.054       .  S
Cd386       O389   1.993       .  S
Cd387       O391   2.112       .  S
Cd387       O400   2.111       .  S
Cd387       O389   2.029       .  S
O388        C398   1.273       .  A
O389       Cd390   1.998       .  S
Cd390       O392   2.059       .  S
O391        C398   1.280       .  A
C393        O397   1.276       .  A
C393        C418   1.479       .  S
C394        C439   1.473       .  S
C396        C454   1.477       .  S
C398        C406   1.495       .  S
C399        O400   1.280       .  A
C399        C430   1.480       .  S
C401        C730   1.568       .  S
C401        C415   1.567   1_655  S
C401        C559   1.564       .  S
C402        C442   1.572       .  S
C402        C451   1.562       .  S
C402        C466   1.570       .  S
C402        C478   1.561       .  S
C403        C728   1.568       .  S
C403        C404   1.413       .  A
C403        C408   1.425       .  A
C404        C405   1.393       .  A
C404        H409   1.082       .  S
C405        C406   1.411       .  A
C405        O410   1.372       .  S
C406        C407   1.405       .  A
C407        C408   1.414       .  A
C407        H411   1.083       .  S
C408        O412   1.373       .  S
O410        H414   0.992       .  S
O412        H413   0.992       .  S
C415        C416   1.417   1_455  A
C415        C420   1.423       .  A
C416        C417   1.398   1_655  A
C416       H1075   1.080       .  S
C417        C418   1.402       .  A
C417        O422   1.372   1_455  S
C418        C419   1.402       .  A
C419        C420   1.408       .  A
C419        H423   1.083       .  S
C420        O424   1.371       .  S
H421       C1070   1.080       .  S
O422       H1080   0.992       .  S
O424        H425   0.992       .  S
H426       O1076   0.992       .  S
C427        C428   1.420       .  A
C427        C432   1.430       .  A
C428        C429   1.404       .  A
C428        H433   1.083   1_455  S
C429        C430   1.401       .  A
C429        O434   1.371       .  S
C430        C431   1.398       .  A
C431        C432   1.402       .  A
C431        H435   1.084       .  S
O434        H438   0.992       .  S
O436        H437   0.993       .  S
C439        C440   1.399       .  A
C439        C444   1.399       .  A
C440        C441   1.409       .  A
C440        H445   1.084       .  S
C441        C442   1.429       .  A
C441        O446   1.371       .  S
C442        C443   1.418       .  A
C443        C444   1.396       .  A
C443        H447   1.083       .  S
C444        O448   1.372       .  S
O446        H450   0.992       .  S
O448        H449   0.992       .  S
C451        C452   1.416       .  A
C451        C456   1.422       .  A
C452        C453   1.396       .  A
C452        H457   1.078       .  S
C453        O458   1.372       .  S
C454        C455   1.401   1_565  A
C455        H459   1.084   1_545  S
C456        O460   1.372       .  S
O458        H462   0.992       .  S
O460        H461   0.991       .  S
C463       C1118   1.399       .  A
C463       C1122   1.408       .  A
C464       C1117   1.399       .  A
C464        C465   1.401       .  A
C464       H1123   1.084       .  S
C465        C466   1.424       .  A
C465        O470   1.371       .  S
C466        C467   1.417       .  A
C467        C468   1.400       .  A
C467        H471   1.081       .  S
C468       C1117   1.408       .  A
C468       O1126   1.372       .  S
H469       C1118   1.084   1_455  S
O470        H474   0.992       .  S
O472       C1122   1.372       .  S
O472       H1127   0.992       .  S
H473       O1126   0.992       .  S
C475        C476   1.415       .  A
C475        C480   1.433       .  A
C476        C477   1.399       .  A
C476        H481   1.062       .  S
C477        C478   1.418       .  A
C477        O482   1.374       .  S
C478        C479   1.408       .  A
C479        C480   1.404       .  A
C479        H483   1.084       .  S
C480        O484   1.370       .  S
O482        H486   0.992       .  S
O484        H485   0.992       .  S
C487        C488   1.398       .  A
C487        C492   1.397       .  A
C488        C489   1.404       .  A
C488        H493   1.084       .  S
C489        C490   1.427       .  A
C489        O494   1.370       .  S
C490        C491   1.421       .  A
C491        C492   1.391       .  A
C491        H495   1.083       .  S
C492        O496   1.372       .  S
O494        H498   0.992       .  S
O496        H497   0.992       .  S
C499        C500   1.398       .  A
C499        C504   1.406       .  A
C500        C501   1.394       .  A
C500        H505   1.084       .  S
C501        C502   1.430       .  A
C501        O506   1.370       .  S
C502        C503   1.420       .  A
C503        C504   1.406       .  A
C503        H507   1.084       .  S
C504        O508   1.371       .  S
O506        H510   0.992       .  S
O508        H509   0.992       .  S
C511        C512   1.425       .  A
C511        C516   1.437       .  A
C512        C513   1.395       .  A
C512        H517   1.083       .  S
C513        C514   1.400       .  A
C514        C515   1.395       .  A
C515        C516   1.397       .  A
C515        H519   1.084       .  S
C516        O520   1.366       .  S
O518        H522   0.992       .  S
O520        H521   0.992       .  S
C523        C524   1.420       .  A
C523        C528   1.435       .  A
C524        C525   1.404       .  A
C524        H529   1.084       .  S
C525        C526   1.401       .  A
C525        O530   1.371       .  S
C526        C527   1.392       .  A
C527        C528   1.397       .  A
C527        H531   1.085       .  S
C528        O532   1.370       .  S
O530        H534   0.992       .  S
O532        H533   0.992       .  S
C535        C536   1.419       .  A
C535        C540   1.422       .  A
C536        C537   1.404       .  A
C536        H541   1.079       .  S
C537        C538   1.408       .  A
C537       O1196   1.371       .  S
C538        C539   1.404       .  A
C539        C540   1.398       .  A
C539        H543   1.083       .  S
C540        O544   1.372       .  S
O542       C1191   1.371       .  S
O542        H546   0.991       .  S
O544        H545   0.993       .  S
C547        C548   1.400       .  A
C547        C552   1.403       .  A
C548        C549   1.403       .  A
C548        H553   1.083       .  S
C549        C550   1.425       .  A
C549        O554   1.372       .  S
C550        C551   1.415       .  A
C551        C552   1.395       .  A
C551        H555   1.078       .  S
C552        O556   1.373       .  S
O554        H558   0.992       .  S
O556        H557   0.992       .  S
C559        C560   1.412   1_655  A
C559        C891   1.420       .  A
C560        C561   1.399   1_554  A
C560        H565   1.078       .  S
C561        C562   1.418   1_455  A
C561        O566   1.373       .  S
C562        C890   1.412       .  A
C563        C889   1.412   1_545  A
C563        C564   1.406   1_556  A
C563        H567   1.079       .  S
C564        C886   1.420   1_545  A
C564        O568   1.374       .  S
O566        H570   0.992       .  S
O568        H569   0.991       .  S
C571        C572   1.410       .  A
C571        C576   1.420       .  A
C572        C573   1.399       .  A
C572        H577   1.077       .  S
C573        C574   1.422       .  A
C573        O578   1.373       .  S
C574        C575   1.411       .  A
C575        C576   1.399       .  A
C575        H579   1.076       .  S
C576        O580   1.373       .  S
O578        H582   0.992       .  S
O580        H581   0.992       .  S
C583        C584   1.406       .  A
C583        C588   1.407       .  A
C584        C585   1.407       .  A
C584        H589   1.083       .  S
C585        C586   1.420       .  A
C585        O590   1.374       .  S
C586        C679   1.562       .  S
C586        C587   1.415       .  A
C587        C588   1.394       .  A
C587       H1245   1.080       .  S
C588        O592   1.372       .  S
O590        H594   0.992       .  S
H591       C1241   1.080   1_455  S
O592       H1247   0.992       .  S
H593       O1246   0.992       .  S
C595        C596   1.416       .  A
C595        C600   1.426       .  A
C596        C597   1.392       .  A
C597        C598   1.398       .  A
C597        O602   1.372       .  S
C598        C599   1.398       .  A
C599        C600   1.404       .  A
C599        H603   1.084       .  S
C600        O604   1.371       .  S
O604        H605   0.991       .  S
C607       C1006   1.567       .  S
C607        C608   1.418       .  A
C607        C612   1.429       .  A
C608        C609   1.402       .  A
C608       H1267   1.081       .  S
C609        C610   1.402       .  A
C609        O614   1.371       .  S
C610        C611   1.397       .  A
C611        C612   1.400       .  A
C611        H615   1.084       .  S
H613       C1262   1.081   1_455  S
O614       H1272   0.992       .  S
O616        H617   0.992       .  S
H618       O1268   0.992       .  S
C619        C620   1.402       .  A
C619        C624   1.410       .  A
C620        C621   1.393       .  A
C620        H625   1.083       .  S
C621        C622   1.423       .  A
C621        O626   1.372       .  S
C622        C623   1.417       .  A
C623        C624   1.405       .  A
C623        H627   1.079       .  S
C624        O628   1.371       .  S
O626        H630   0.992       .  S
O628        H629   0.992       .  S
C631        C632   1.398       .  A
C631       C1290   1.400       .  A
C632       C1287   1.406       .  A
C632        H637   1.084       .  S
C633       C1286   1.406       .  A
C633        C634   1.426       .  A
C633        O638   1.374       .  S
C634        C635   1.419       .  A
C635        C636   1.397       .  A
C635        H639   1.077       .  S
C636       C1285   1.400       .  A
C636        O640   1.372       .  S
O638        H642   0.992       .  S
O640        H641   0.992       .  S
C644        C645   1.408       .  A
C644        H649   1.083   1_565  S
C645        C646   1.426       .  A
C645        O650   1.373       .  S
C646        C647   1.417       .  A
C647        C648   1.390       .  A
C647        H651   1.078       .  S
O650        H654   0.992       .  S
O652        H653   0.992       .  S
O655        C671   1.274       .  A
O655       Zn661   2.018       .  S
C656        O672   1.276       .  A
C656        O669   1.273       .  A
C656        C937   1.478       .  S
O657        C670   1.277       .  A
O657       Cd664   2.088       .  S
O658        C676   1.271       .  A
O658       Cd667   2.037       .  S
O659        C673   1.271       .  A
O659       Cd663   2.061       .  S
O660        C671   1.273       .  A
O660       Cd663   2.067       .  S
Zn661       O672   2.038       .  S
Zn661       O674   2.020       .  S
Zn661       O666   1.942       .  S
O662        C673   1.273       .  A
O662       Cd667   2.065       .  S
Cd663       O665   2.054       .  S
Cd663       O666   1.996       .  S
Cd664       O668   2.090       .  S
Cd664       O677   2.095       .  S
Cd664       O666   2.026       .  S
O665        C675   1.275       .  A
O666       Cd667   1.983       .  S
Cd667       O669   2.058       .  S
O668        C675   1.277       .  A
C670        O674   1.276       .  A
C670        C958   1.474   1_655  S
C671        C910   1.485       .  S
C673        C925   1.465       .  S
C675        C946   1.489       .  S
C676        O677   1.276       .  A
C676        C970   1.471   1_545  S
C678        C898   1.562       .  S
C678        C949   1.566       .  S
C678        C961   1.570       .  S
C678        C973   1.567       .  S
C679        C889   1.561       .  S
C679        C922   1.561   1_565  S
O680        C696   1.276       .  A
C681        O697   1.276       .  A
C681        O694   1.270       .  A
C681        C814   1.464       .  S
O682        C695   1.275       .  A
O683        C701   1.273       .  A
O683       Cd692   2.048       .  S
O684        C698   1.273       .  A
O684      Cd1015   2.064   1_545  S
O685        C696   1.273       .  A
O685       Cd688   2.052       .  S
Zn686      O1024   2.034       .  S
Zn686       O699   2.012       .  S
Zn686       O691   1.940       .  S
O687        C698   1.272   1_455  A
Cd688      O1011   2.064       .  S
Cd688       O690   2.047       .  S
Cd689       O693   2.100   1_455  S
O690        C700   1.273       .  A
O691      Cd1019   1.982       .  S
Cd692       O694   2.044       .  S
Cd692      O1018   1.982       .  S
O693        C700   1.278       .  A
C695        O699   1.275       .  A
C695        C874   1.474       .  S
C696        C826   1.482       .  S
O697      Zn1013   2.034   1_545  S
C698        C841   1.478       .  S
C700        C853   1.472       .  S
C701        O702   1.280       .  A
C701        C865   1.491       .  S
C703        C802   1.588       .  S
C703        C817   1.562       .  S
C703        C829   1.568       .  S
C703        C838   1.595       .  S
C704        C850   1.575       .  S
C704        C862   1.569       .  S
C704        C877   1.561       .  S
C704        C901   1.566       .  S
O705        C721   1.275       .  A
O705       Zn711   2.038       .  S
C706        O722   1.276       .  A
C706        O719   1.272       .  A
C706        C790   1.482       .  S
O707        C720   1.277       .  A
O707       Cd714   2.094       .  S
O708        C726   1.273       .  A
O708       Cd717   2.048       .  S
O709        C723   1.275       .  A
O709       Cd713   2.078       .  S
O710        C721   1.274       .  A
O710       Cd713   2.072       .  S
Zn711       O722   2.031       .  S
Zn711       O724   2.023       .  S
Zn711       O716   1.946       .  S
O712        C723   1.272       .  A
O712       Cd717   2.059       .  S
Cd713       O715   2.053       .  S
Cd713       O716   1.993       .  S
Cd714       O718   2.112       .  S
Cd714       O727   2.111       .  S
Cd714       O716   2.029       .  S
O715        C725   1.273       .  A
O716       Cd717   1.998       .  S
Cd717       O719   2.059       .  S
O718        C725   1.280       .  A
C720        O724   1.276       .  A
C720        C745   1.479       .  S
C721        C766   1.473       .  S
C723        C781   1.477       .  S
C725        C733   1.495       .  S
C726        O727   1.280       .  A
C726        C757   1.480       .  S
C728        C742   1.567   1_565  S
C728       C1081   1.573       .  S
C728        C886   1.564       .  S
C729        C769   1.572       .  S
C729        C778   1.562       .  S
C729        C793   1.570       .  S
C729        C805   1.561       .  S
C730        C731   1.413       .  A
C730        C735   1.425       .  A
C731        C732   1.393       .  A
C731        H736   1.082       .  S
C732        C733   1.411       .  A
C732        O737   1.372       .  S
C733        C734   1.405       .  A
C734        C735   1.414       .  A
C734        H738   1.083       .  S
C735        O739   1.373       .  S
O737        H741   0.992       .  S
O739        H740   0.992       .  S
C742        C743   1.417       .  A
C742        C747   1.423       .  A
C743        C744   1.398       .  A
C744        C745   1.402       .  A
C744        O749   1.372       .  S
C745        C746   1.402       .  A
C746        C747   1.408       .  A
C746        H750   1.083       .  S
C747        O751   1.371       .  S
O751        H752   0.992       .  S
C754       C1055   1.573       .  S
C754        C755   1.420       .  A
C754        C759   1.430       .  A
C755        C756   1.404       .  A
C755        H760   1.083       .  S
C756        C757   1.401       .  A
C756        O761   1.371       .  S
C757        C758   1.398       .  A
C758        C759   1.402       .  A
C758        H762   1.084       .  S
C759       O1090   1.372       .  S
O761        H765   0.992       .  S
O763       C1086   1.372   1_545  S
O763        H764   0.993       .  S
C766        C767   1.399       .  A
C766        C771   1.399       .  A
C767        C768   1.409       .  A
C767        H772   1.084       .  S
C768        C769   1.429       .  A
C768        O773   1.371       .  S
C769        C770   1.418       .  A
C770        C771   1.396       .  A
C770        H774   1.083       .  S
C771        O775   1.372       .  S
O773        H777   0.992       .  S
O775        H776   0.992       .  S
C778        C779   1.416       .  A
C778        C783   1.422       .  A
C779        C780   1.396       .  A
C779        H784   1.078       .  S
C780       C1108   1.403   1_545  A
C780        O785   1.372       .  S
C781       C1107   1.403       .  A
C781        C782   1.401       .  A
C782       C1110   1.404       .  A
C782        H786   1.084       .  S
C783       C1109   1.404       .  A
C783        O787   1.372       .  S
O785        H789   0.992       .  S
O787        H788   0.991       .  S
C791        C792   1.401       .  A
C792        C793   1.424       .  A
C792        O797   1.371       .  S
C793        C794   1.417       .  A
C794        C795   1.400       .  A
C794        H798   1.081       .  S
O797        H801   0.992       .  S
C802        C803   1.415       .  A
C802        C807   1.433       .  A
C803        C804   1.399       .  A
C803        H808   1.062       .  S
C804        C805   1.418       .  A
C804        O809   1.374       .  S
C805        C806   1.408       .  A
C806        C807   1.404       .  A
C806        H810   1.084       .  S
C807        O811   1.370       .  S
O809        H813   0.992       .  S
O811        H812   0.992       .  S
C814        C815   1.398       .  A
C814        C819   1.397       .  A
C815        C816   1.404       .  A
C815        H820   1.084       .  S
C816        C817   1.427       .  A
C816        O821   1.370       .  S
C817        C818   1.421       .  A
C818        C819   1.391       .  A
C818        H822   1.083       .  S
C819        O823   1.372       .  S
O821        H825   0.992       .  S
O823        H824   0.992       .  S
C826        C827   1.398       .  A
C826        C831   1.406       .  A
C827        C828   1.394       .  A
C827        H832   1.084       .  S
C828        C829   1.430       .  A
C828        O833   1.370       .  S
C829        C830   1.420       .  A
C830        C831   1.406       .  A
C830        H834   1.084       .  S
C831        O835   1.371       .  S
O833        H837   0.992       .  S
O835        H836   0.992   1_655  S
C838        C839   1.425       .  A
C838        C843   1.437       .  A
C839        C840   1.395       .  A
C839        H844   1.083       .  S
C840        C841   1.400       .  A
C840       O1172   1.372       .  S
C841        C842   1.395       .  A
C842        C843   1.397       .  A
C842        H846   1.084       .  S
C843        O847   1.366       .  S
O845       C1167   1.372       .  S
O845        H849   0.992       .  S
O847        H848   0.992       .  S
C850        C851   1.420       .  A
C850        C855   1.435       .  A
C851        C852   1.404       .  A
C851        H856   1.084       .  S
C852        C853   1.401       .  A
C852        O857   1.371       .  S
C853        C854   1.392       .  A
C854        C855   1.397       .  A
C854        H858   1.085       .  S
C855        O859   1.370       .  S
O857        H861   0.992       .  S
O859        H860   0.992       .  S
C862        C863   1.419       .  A
C862        C867   1.422       .  A
C863        C864   1.404       .  A
C863        H868   1.079       .  S
C864        C865   1.408       .  A
C865        C866   1.404       .  A
C866        C867   1.398       .  A
C866        H870   1.083       .  S
C867        O871   1.372       .  S
O869        H873   0.991       .  S
O871        H872   0.993       .  S
C874        C875   1.400       .  A
C874        C879   1.403       .  A
C875        C876   1.403       .  A
C875        H880   1.083       .  S
C876        C877   1.425       .  A
C876        O881   1.372       .  S
C877        C878   1.415       .  A
C878        C879   1.395       .  A
C878        H882   1.078       .  S
C879        O883   1.373       .  S
O881        H885   0.992       .  S
O883        H884   0.992       .  S
C886        C887   1.412       .  A
C887        C888   1.399   1_554  A
C887        H892   1.078       .  S
C888        C889   1.418       .  A
C888        O893   1.373       .  S
C890        C891   1.406   1_556  A
C890        H894   1.079       .  S
C891        O895   1.374       .  S
O893        H897   0.992       .  S
O895        H896   0.991       .  S
C898        C899   1.410       .  A
C898        C903   1.420       .  A
C899        C900   1.399       .  A
C899        H904   1.077       .  S
C900        C901   1.422       .  A
C900        O905   1.373       .  S
C901        C902   1.411       .  A
C902        C903   1.399       .  A
C902        H906   1.076       .  S
C903        O907   1.373       .  S
O905        H909   0.992       .  S
O907        H908   0.992       .  S
C910        C911   1.406       .  A
C910        C915   1.407       .  A
C911        C912   1.407       .  A
C911        H916   1.083       .  S
C912        C913   1.420       .  A
C912        O917   1.374       .  S
C913        C914   1.415       .  A
C914        C915   1.394       .  A
C915        O919   1.372   1_655  S
O917        H921   0.992       .  S
C922        C923   1.416       .  A
C922        C927   1.426       .  A
C923        C924   1.392       .  A
C923       H1255   1.080   1_545  S
C924        C925   1.398       .  A
C924        O929   1.372       .  S
C925        C926   1.398       .  A
C926        C927   1.404       .  A
C926        H930   1.084       .  S
C927        O931   1.371       .  S
H928       C1250   1.080       .  S
O929       H1260   0.992   1_545  S
O931        H932   0.991       .  S
H933       O1256   0.992       .  S
C934        C935   1.418       .  A
C934        C939   1.429   1_545  A
C935        C936   1.402       .  A
C936        C937   1.402       .  A
C936        O941   1.371       .  S
C937        C938   1.397       .  A
C938        C939   1.400   1_545  A
C938        H942   1.084       .  S
C939       O1270   1.372       .  S
O943       C1266   1.372       .  S
O943        H944   0.992       .  S
C946        C947   1.402       .  A
C946        C951   1.410       .  A
C947        C948   1.393       .  A
C947        H952   1.083       .  S
C948        C949   1.423       .  A
C948        O953   1.372       .  S
C949        C950   1.417       .  A
C950        C951   1.405       .  A
C950        H954   1.079       .  S
C951        O955   1.371       .  S
O953        H957   0.992       .  S
O955        H956   0.992       .  S
C958        C959   1.398       .  A
C959        H964   1.084   1_455  S
C960        C961   1.426       .  A
C960        O965   1.374       .  S
C961        C962   1.419       .  A
C962        C963   1.397       .  A
C962        H966   1.077       .  S
C963        O967   1.372       .  S
O965        H969   0.992       .  S
O967        H968   0.992       .  S
C970       C1298   1.400       .  A
C970       C1302   1.400       .  A
C971       C1297   1.400       .  A
C971        C972   1.408       .  A
C971        H976   1.083       .  S
C972        C973   1.426       .  A
C972        O977   1.373       .  S
C973        C974   1.417       .  A
C974        C975   1.390       .  A
C974        H978   1.078       .  S
C975       C1297   1.400       .  A
C975       O1306   1.373       .  S
O977        H981   0.992       .  S
O979       C1302   1.373       .  S
O979        H980   0.991       .  S
O982        C998   1.274       .  A
O982       Zn988   2.018       .  S
C983        O999   1.276       .  A
C983        O996   1.273       .  A
C983       C1264   1.478       .  S
O984        C997   1.277       .  A
O984       Cd991   2.088       .  S
O985       C1003   1.271       .  A
O985       Cd994   2.037       .  S
O986       C1000   1.271       .  A
O986       Cd990   2.061       .  S
O987        C998   1.273       .  A
O987       Cd990   2.067       .  S
Zn988       O999   2.038       .  S
Zn988      O1001   2.020       .  S
Zn988       O993   1.942       .  S
O989       C1000   1.273       .  A
O989       Cd994   2.065       .  S
Cd990       O992   2.054       .  S
Cd990       O993   1.996       .  S
Cd991       O995   2.090       .  S
Cd991      O1004   2.095       .  S
Cd991       O993   2.026       .  S
O992       C1002   1.275       .  A
O993       Cd994   1.983       .  S
Cd994       O996   2.058       .  S
O995       C1002   1.277       .  A
C997       O1001   1.276       .  A
C997       C1285   1.474   1_655  S
C998       C1237   1.485       .  S
C1000      C1252   1.465       .  S
C1002      C1273   1.489       .  S
C1003      O1004   1.276       .  A
C1003      C1297   1.471       .  S
C1005      C1225   1.562       .  S
C1005      C1276   1.566       .  S
C1005      C1288   1.570       .  S
C1005      C1300   1.567       .  S
C1006      C1216   1.561       .  S
C1006      C1249   1.561       .  S
O1007      C1023   1.276       .  A
C1008      O1024   1.276       .  A
C1008      O1021   1.270       .  A
C1008      C1141   1.464       .  S
O1009      C1022   1.275       .  A
O1010      C1028   1.273       .  A
O1010     Cd1019   2.048       .  S
O1011      C1025   1.273       .  A
O1012      C1023   1.273       .  A
O1012     Cd1015   2.052       .  S
Zn1013     O1026   2.012       .  S
Zn1013     O1018   1.940   1_565  S
O1014      C1025   1.272   1_455  A
Cd1015     O1017   2.047       .  S
Cd1016     O1020   2.100   1_445  S
O1017      C1027   1.273       .  A
Cd1019     O1021   2.044       .  S
O1020      C1027   1.278       .  A
C1022      O1026   1.275       .  A
C1022      C1201   1.474       .  S
C1023      C1153   1.482       .  S
C1025      C1168   1.479       .  S
C1027      C1180   1.472       .  S
C1028      O1029   1.280       .  A
C1028      C1192   1.491       .  S
C1030      C1129   1.588       .  S
C1030      C1144   1.562       .  S
C1030      C1156   1.568       .  S
C1030      C1165   1.595       .  S
C1031      C1177   1.575       .  S
C1031      C1189   1.569       .  S
C1031      C1204   1.561       .  S
C1031      C1228   1.566       .  S
O1032      C1048   1.275       .  A
O1032     Zn1038   2.038       .  S
C1033      O1049   1.276       .  A
C1033      O1046   1.272       .  A
C1033      C1117   1.482       .  S
O1034      C1047   1.277       .  A
O1034     Cd1041   2.094       .  S
O1035      C1053   1.273       .  A
O1035     Cd1044   2.048       .  S
O1036      C1050   1.275       .  A
O1036     Cd1040   2.078       .  S
O1037      C1048   1.274       .  A
O1037     Cd1040   2.072       .  S
Zn1038     O1049   2.031       .  S
Zn1038     O1051   2.023       .  S
Zn1038     O1043   1.946       .  S
O1039      C1050   1.272       .  A
O1039     Cd1044   2.059       .  S
Cd1040     O1042   2.054       .  S
Cd1040     O1043   1.993       .  S
Cd1041     O1045   2.112       .  S
Cd1041     O1054   2.111       .  S
Cd1041     O1043   2.029       .  S
O1042      C1052   1.273       .  A
O1043     Cd1044   1.998       .  S
Cd1044     O1046   2.059       .  S
O1045      C1052   1.280       .  A
C1047      O1051   1.276       .  A
C1047      C1072   1.479       .  S
C1048      C1093   1.473       .  S
C1050      C1108   1.477       .  S
C1052      C1060   1.495       .  S
C1053      O1054   1.280       .  A
C1053      C1084   1.480       .  S
C1055      C1069   1.567       .  S
C1055      C1213   1.564       .  S
C1056      C1096   1.572       .  S
C1056      C1105   1.562       .  S
C1056      C1120   1.570       .  S
C1056      C1132   1.561       .  S
C1057      C1058   1.413       .  A
C1057      C1062   1.425       .  A
C1058      C1059   1.393       .  A
C1058      H1063   1.082       .  S
C1059      C1060   1.411       .  A
C1059      O1064   1.372       .  S
C1060      C1061   1.405       .  A
C1061      C1062   1.414       .  A
C1061      H1065   1.083       .  S
C1062      O1066   1.373       .  S
O1064      H1068   0.992       .  S
O1066      H1067   0.992       .  S
C1069      C1070   1.417       .  A
C1069      C1074   1.423       .  A
C1070      C1071   1.398       .  A
C1071      C1072   1.402       .  A
C1071      O1076   1.372       .  S
C1072      C1073   1.402       .  A
C1073      C1074   1.408       .  A
C1073      H1077   1.083       .  S
C1074      O1078   1.371       .  S
O1078      H1079   0.992       .  S
C1081      C1082   1.420       .  A
C1081      C1086   1.430       .  A
C1082      C1083   1.404       .  A
C1082      H1087   1.083       .  S
C1083      C1084   1.401       .  A
C1083      O1088   1.371       .  S
C1084      C1085   1.398       .  A
C1085      C1086   1.402       .  A
C1085      H1089   1.084       .  S
O1088      H1092   0.992       .  S
O1090      H1091   0.993       .  S
C1093      C1094   1.399       .  A
C1093      C1098   1.399       .  A
C1094      C1095   1.409       .  A
C1094      H1099   1.084       .  S
C1095      C1096   1.429       .  A
C1095      O1100   1.371       .  S
C1096      C1097   1.418       .  A
C1097      C1098   1.396       .  A
C1097      H1101   1.083       .  S
C1098      O1102   1.372       .  S
O1100      H1104   0.992       .  S
O1102      H1103   0.992       .  S
C1105      C1106   1.416       .  A
C1105      C1110   1.422       .  A
C1106      C1107   1.396       .  A
C1106      H1111   1.078       .  S
C1107      O1112   1.372       .  S
C1108      C1109   1.401   1_565  A
C1109      H1113   1.084   1_545  S
C1110      O1114   1.372       .  S
O1112      H1116   0.992       .  S
O1114      H1115   0.991       .  S
C1118      C1119   1.401       .  A
C1119      C1120   1.424       .  A
C1119      O1124   1.371       .  S
C1120      C1121   1.417       .  A
C1121      C1122   1.400       .  A
C1121      H1125   1.081       .  S
O1124      H1128   0.992       .  S
C1129      C1130   1.415       .  A
C1129      C1134   1.433       .  A
C1130      C1131   1.399       .  A
C1130      H1135   1.062       .  S
C1131      C1132   1.418       .  A
C1131      O1136   1.374       .  S
C1132      C1133   1.408       .  A
C1133      C1134   1.404       .  A
C1133      H1137   1.084       .  S
C1134      O1138   1.370       .  S
O1136      H1140   0.992       .  S
O1138      H1139   0.992       .  S
C1141      C1142   1.398       .  A
C1141      C1146   1.397       .  A
C1142      C1143   1.404       .  A
C1142      H1147   1.084       .  S
C1143      C1144   1.427       .  A
C1143      O1148   1.370       .  S
C1144      C1145   1.421       .  A
C1145      C1146   1.391       .  A
C1145      H1149   1.083       .  S
C1146      O1150   1.372       .  S
O1148      H1152   0.992       .  S
O1150      H1151   0.992       .  S
C1153      C1154   1.398       .  A
C1153      C1158   1.406       .  A
C1154      C1155   1.394       .  A
C1154      H1159   1.084       .  S
C1155      C1156   1.430       .  A
C1155      O1160   1.370       .  S
C1156      C1157   1.420       .  A
C1157      C1158   1.406       .  A
C1157      H1161   1.084       .  S
C1158      O1162   1.371       .  S
O1160      H1164   0.992       .  S
O1162      H1163   0.992   1_655  S
C1165      C1166   1.425       .  A
C1165      C1170   1.437       .  A
C1166      C1167   1.395       .  A
C1166      H1171   1.083       .  S
C1167      C1168   1.400       .  A
C1168      C1169   1.395       .  A
C1169      C1170   1.397       .  A
C1169      H1173   1.084       .  S
C1170      O1174   1.366       .  S
O1172      H1176   0.992       .  S
O1174      H1175   0.992       .  S
C1177      C1178   1.420       .  A
C1177      C1182   1.435       .  A
C1178      C1179   1.404       .  A
C1178      H1183   1.084       .  S
C1179      C1180   1.401       .  A
C1179      O1184   1.371       .  S
C1180      C1181   1.392       .  A
C1181      C1182   1.397       .  A
C1181      H1185   1.085       .  S
C1182      O1186   1.370       .  S
O1184      H1188   0.992       .  S
O1186      H1187   0.992       .  S
C1189      C1190   1.419       .  A
C1189      C1194   1.422       .  A
C1190      C1191   1.404       .  A
C1190      H1195   1.079       .  S
C1191      C1192   1.408       .  A
C1192      C1193   1.404       .  A
C1193      C1194   1.398       .  A
C1193      H1197   1.083       .  S
C1194      O1198   1.372       .  S
O1196      H1200   0.991       .  S
O1198      H1199   0.993       .  S
C1201      C1202   1.400       .  A
C1201      C1206   1.403       .  A
C1202      C1203   1.403       .  A
C1202      H1207   1.083       .  S
C1203      C1204   1.425       .  A
C1203      O1208   1.372       .  S
C1204      C1205   1.415       .  A
C1205      C1206   1.395       .  A
C1205      H1209   1.078       .  S
C1206      O1210   1.373       .  S
O1208      H1212   0.992       .  S
O1210      H1211   0.992       .  S
C1213      C1214   1.412       .  A
C1214      C1215   1.399   1_554  A
C1214      H1219   1.078       .  S
C1215      C1216   1.418       .  A
C1215      O1220   1.373       .  S
C1217      C1218   1.406   1_556  A
C1217      H1221   1.079       .  S
C1218      O1222   1.374       .  S
O1220      H1224   0.992       .  S
O1222      H1223   0.991       .  S
C1225      C1226   1.410       .  A
C1225      C1230   1.420       .  A
C1226      C1227   1.399       .  A
C1226      H1231   1.077       .  S
C1227      C1228   1.422       .  A
C1227      O1232   1.373       .  S
C1228      C1229   1.411       .  A
C1229      C1230   1.399       .  A
C1229      H1233   1.076       .  S
C1230      O1234   1.373       .  S
O1232      H1236   0.992       .  S
O1234      H1235   0.992       .  S
C1237      C1238   1.406       .  A
C1237      C1242   1.407       .  A
C1238      C1239   1.407       .  A
C1238      H1243   1.083       .  S
C1239      C1240   1.420       .  A
C1239      O1244   1.374       .  S
C1240      C1241   1.415       .  A
C1241      C1242   1.394       .  A
C1242      O1246   1.372   1_655  S
O1244      H1248   0.992       .  S
C1249      C1250   1.416       .  A
C1249      C1254   1.426       .  A
C1250      C1251   1.392       .  A
C1251      C1252   1.398       .  A
C1251      O1256   1.372       .  S
C1252      C1253   1.398       .  A
C1253      C1254   1.404       .  A
C1253      H1257   1.084       .  S
C1254      O1258   1.371       .  S
O1258      H1259   0.991       .  S
C1261      C1262   1.418       .  A
C1261      C1266   1.429       .  A
C1262      C1263   1.402       .  A
C1263      C1264   1.402       .  A
C1263      O1268   1.371       .  S
C1264      C1265   1.397       .  A
C1265      C1266   1.400       .  A
C1265      H1269   1.084       .  S
O1270      H1271   0.992       .  S
C1273      C1274   1.402       .  A
C1273      C1278   1.410       .  A
C1274      C1275   1.393       .  A
C1274      H1279   1.083       .  S
C1275      C1276   1.423       .  A
C1275      O1280   1.372       .  S
C1276      C1277   1.417       .  A
C1277      C1278   1.405       .  A
C1277      H1281   1.079       .  S
C1278      O1282   1.371       .  S
O1280      H1284   0.992       .  S
O1282      H1283   0.992       .  S
C1285      C1286   1.398       .  A
C1286      H1291   1.084   1_455  S
C1287      C1288   1.426       .  A
C1287      O1292   1.374       .  S
C1288      C1289   1.419       .  A
C1289      C1290   1.397       .  A
C1289      H1293   1.077       .  S
C1290      O1294   1.372       .  S
O1292      H1296   0.992       .  S
O1294      H1295   0.992       .  S
C1298      C1299   1.408       .  A
C1298      H1303   1.083   1_565  S
C1299      C1300   1.426       .  A
C1299      O1304   1.373       .  S
C1300      C1301   1.417       .  A
C1301      C1302   1.390       .  A
C1301      H1305   1.078       .  S
O1304      H1308   0.992       .  S
O1306      H1307   0.991       .  S
