geometry optimzed in LAMMPS
_audit_creation_date              2020-11-30 
_audit_creation_method            'lammps2cif' 
_symmetry_space_group_name_H-M    'P1' 
_symmetry_Int_Tables_number       1 
_symmetry_cell_setting            triclinic 
loop_ 
_symmetry_equiv_pos_as_xyz 
  x,y,z 
_cell_length_a                    25.55483406 
_cell_length_b                    25.54204767604392 
_cell_length_c                    25.86781549086298 
_cell_angle_alpha                 90.07231698124792 
_cell_angle_beta                  90.05427135714567 
_cell_angle_gamma                 90.02172457605407 
loop_ 
_atom_site_label 
_atom_site_type_symbol 
_atom_site_fract_x 
_atom_site_fract_y 
_atom_site_fract_z 
_atom_site_charge 
C1          C  0.38342776  0.37657868  0.38844152     0.43400
N2          N  0.44243311  0.43184581  0.40937543     0.02300
C3          C  0.59491012  0.43665506  0.63020893    -0.05600
H4          H  0.39807848  0.47256293  0.66134432     0.07800
C5          C  0.41103377  0.63566646  0.55552260    -0.05900
Co6        Co  0.49845838  0.40164512  0.50614396     0.74200
N7          N  0.44357008  0.45012534  0.59532447    -0.25100
Co8        Co  0.50206623  0.50598151  0.59097251     0.74100
C9          C  0.38770170  0.62116833  0.60497753     0.43500
N10         N  0.44584497  0.58813681  0.43103447     0.01900
N11         N  0.44696851  0.56541699  0.58561222     0.02000
N12         N  0.58971419  0.36878718  0.57427222    -0.46000
H13         H  0.39867456  0.32675188  0.46101082     0.07800
N14         N  0.44232163  0.40956699  0.56385245     0.02300
N15         N  0.56021815  0.56188899  0.58475263     0.02000
C16         C  0.62163148  0.61550144  0.60477215     0.43600
N17         N  0.44462539  0.54777759  0.39916597    -0.24600
C18         C  0.59299528  0.36109722  0.44336304    -0.05500
N19         N  0.40877161  0.41974619  0.37245984    -0.45700
N20         N  0.59503920  0.57301841  0.62093128    -0.45900
C21         C  0.61676634  0.37349076  0.39352042     0.43400
N22         N  0.55558274  0.40596546  0.56282938     0.02300
N23         N  0.55800391  0.54542882  0.39797680    -0.24600
N24         N  0.44183502  0.39828096  0.44813065    -0.25100
N25         N  0.55888020  0.58556711  0.43004567     0.01900
H26         H  0.60098566  0.52703277  0.32896606     0.07800
H27         H  0.60780407  0.66346022  0.53025002     0.07800
N28         N  0.55727548  0.44581307  0.59520552    -0.25100
N29         N  0.44729700  0.59873428  0.54666407    -0.24700
N30         N  0.55547781  0.42868688  0.40942539     0.02300
C31         C  0.38140073  0.39456171  0.61908965     0.43700
C32         C  0.40722835  0.55580543  0.36378210    -0.06000
N33         N  0.56107941  0.59516379  0.54580146    -0.24700
H34         H  0.40404813  0.66984087  0.53186938     0.07800
N35         N  0.40629034  0.37495412  0.57716040    -0.46000
H36         H  0.39837122  0.52982410  0.33192592     0.07800
C37         C  0.61741597  0.60409577  0.37321145     0.43500
C38         C  0.40564125  0.36153505  0.43824032    -0.05500
Co39       Co  0.50019419  0.48823440  0.40320243     0.73800
N40         N  0.41187850  0.62504736  0.41809064    -0.45700
C41         C  0.61637932  0.38536061  0.61619485     0.43800
N42         N  0.59133504  0.41588891  0.37485191    -0.45700
Co43       Co  0.50333216  0.59292358  0.48829665     0.73900
C44         C  0.59930685  0.63006722  0.55444773    -0.06000
C45         C  0.40567858  0.44507549  0.63049885    -0.05600
N46         N  0.55496713  0.39648699  0.44918115    -0.25100
N47         N  0.41264674  0.57799052  0.62178672    -0.45900
H48         H  0.60400586  0.46137898  0.66297396     0.07800
C49         C  0.59420528  0.55298471  0.36125473    -0.06000
Cl50       Cl  0.50097913  0.49725272  0.49710874    -0.49000
C51         C  0.38584846  0.60753596  0.37589700     0.43600
H52         H  0.60150881  0.32998950  0.47031771     0.07800
N53         N  0.59318600  0.62166806  0.41628338    -0.45700
C54         C  0.11569868  0.37796747  0.88813446     0.43400
N55         N  0.09498591  0.43246659  0.94744668     0.02300
C56         C  0.86791798  0.43836118  0.09397805    -0.05600
H57         H  0.83442697  0.45838699  0.90269242     0.07800
C58         C  0.94374552  0.63026903  0.90470477    -0.05900
Co59       Co  0.99709240  0.40234935  0.00246533     0.74200
N60         N  0.90506148  0.44546421  0.94608673    -0.25100
Co61       Co  0.90766754  0.50493591  0.00108693     0.74100
C62         C  0.89408475  0.61445170  0.88144209     0.43500
N63         N  0.06918070  0.58726644  0.94442401     0.01900
N64         N  0.91279845  0.56200670  0.94351593     0.02000
N65         N  0.92635762  0.37189177  0.09295754    -0.46000
H66         H  0.04267194  0.32744028  0.90338777     0.07800
N67         N  0.94006759  0.40757207  0.94577018     0.02300
N68         N  0.91225878  0.56461575  0.05624065     0.02000
C69         C  0.89187556  0.62155771  0.11379645     0.43600
N70         N  0.10354559  0.54882381  0.94676708    -0.24600
C71         C  0.06518978  0.36035584  0.09249643    -0.05500
N72         N  0.13181188  0.42129860  0.91326365    -0.45700
N73         N  0.87576636  0.57707033  0.09045852    -0.45900
C74         C  0.11513329  0.37486464  0.11705146     0.43400
N75         N  0.93830524  0.40810897  0.05834722     0.02300
N76         N  0.10071016  0.54938107  0.05829457    -0.24600
N77         N  0.05622865  0.39831332  0.94715190    -0.25100
N78         N  0.06790413  0.58927912  0.05703270     0.01900
H79         H  0.16998439  0.53308249  0.10301913     0.07800
H80         H  0.96481447  0.67132838  0.09612875     0.07800
N81         N  0.90445272  0.44717365  0.05783408    -0.25100
N82         N  0.95209768  0.59559325  0.94276823    -0.24700
N83         N  0.09313355  0.43303765  0.06017090     0.02300
C84         C  0.88661765  0.38656071  0.88521773     0.43700
C85         C  0.14172552  0.55821132  0.91248153    -0.06000
N86         N  0.95093314  0.59890941  0.05502187    -0.24700
H87         H  0.96773665  0.66413281  0.89646181     0.07800
N88         N  0.93054690  0.37177177  0.91011753    -0.46000
H89         H  0.17702058  0.53524743  0.90842124     0.07800
C90         C  0.12228265  0.60779702  0.11730005     0.43500
C91         C  0.06598520  0.36197224  0.91090647    -0.05500
Co92       Co  0.09881174  0.49087691  0.00328543     0.73800
N93         N  0.08211446  0.62335348  0.91002669    -0.45700
C94         C  0.88252027  0.38826056  0.11717462     0.43800
N95         N  0.12959967  0.42037815  0.09428483    -0.45700
Co96       Co  0.01017279  0.59374370  0.99972584     0.73900
C97         C  0.94139474  0.63658348  0.09000515    -0.06000
C98         C  0.86933908  0.43550419  0.90944341    -0.05600
N99         N  0.05493224  0.39856241  0.05862206    -0.25100
N100        N  0.87672155  0.57255762  0.90819891    -0.45900
H101        H  0.83374392  0.46235519  0.10080549     0.07800
C102        C  0.13630815  0.55748630  0.09528667    -0.06000
Cl103      Cl  0.00341400  0.49802180  0.00171745    -0.49000
C104        C  0.12737979  0.60774967  0.88780087     0.43600
H105        H  0.04247005  0.32493151  0.09488559     0.07800
N106        N  0.08028737  0.62599793  0.09111136    -0.45700
C107        C  0.75686935  0.25172724  0.74592431    -0.01500
C108        C  0.39367221  0.11624307  0.87962419     0.43400
N109        N  0.41689124  0.06260889  0.93989187     0.02300
C110        C  0.64549749  0.06594377  0.08398913    -0.05600
H111        H  0.67381190  0.04119310  0.88865042     0.07800
C112        C  0.56616462  0.86659461  0.90313275    -0.05900
Co113      Co  0.51394308  0.09747105  0.99431363     0.74200
N114        N  0.60499959  0.05417845  0.93531835    -0.25100
Co115      Co  0.60586337  0.99641842  0.99282692     0.74100
C116        C  0.61586193  0.87879955  0.87788639     0.43500
N117        N  0.44510037  0.90733009  0.94343821     0.01900
N118        N  0.60034855  0.93554158  0.93816279     0.02000
N119        N  0.58575727  0.13118310  0.08334466    -0.46000
H120        H  0.46446552  0.17001249  0.89764161     0.07800
N121        N  0.57006753  0.09231244  0.93612460     0.02300
N122        N  0.60432929  0.93978512  0.05090081     0.02000
C123        C  0.62670390  0.88907145  0.11362620     0.43600
N124        N  0.41069127  0.94575010  0.94382501    -0.24600
C125        C  0.44562093  0.13687836  0.08778381    -0.05500
N126        N  0.38025098  0.07180024  0.90483560    -0.45700
N127        N  0.64134841  0.93141866  0.08591872    -0.45900
C128        C  0.39702675  0.11884496  0.11186487     0.43400
N129        N  0.57431649  0.09462426  0.04873353     0.02300
N130        N  0.41441972  0.94939126  0.05554786    -0.24600
N131        N  0.45390214  0.09851590  0.93983962    -0.25100
N132        N  0.44752413  0.90989714  0.05546141     0.01900
H133        H  0.34711171  0.96822793  0.10086780     0.07800
H134        H  0.55355895  0.83737343  0.10120740     0.07800
N135        N  0.60910517  0.05640228  0.04781885    -0.25100
N136        N  0.56091170  0.90238917  0.94043364    -0.24700
N137        N  0.41907314  0.06482835  0.05265219     0.02300
C138        C  0.62068653  0.11229062  0.87300441     0.43700
C139        C  0.37257658  0.93465285  0.91002359    -0.06000
N140        N  0.56599180  0.90515856  0.05315549    -0.24700
H141        H  0.53866891  0.83532838  0.89611069     0.07800
N142        N  0.57864687  0.12818595  0.90023854    -0.46000
H143        H  0.33719090  0.95728686  0.90497507     0.07800
C144        C  0.39110152  0.89025289  0.11437789     0.43500
C145        C  0.44255196  0.13427126  0.90370890    -0.05500
Co146      Co  0.41475296  0.00583128  0.99787901     0.73800
N147        N  0.43231872  0.86949441  0.91068113    -0.45700
C148        C  0.63015604  0.11580939  0.10738687     0.43800
N149        N  0.38259759  0.07466142  0.08748935    -0.45700
Co150      Co  0.50498082  0.90531176  0.99829263     0.73900
C151        C  0.57665689  0.87145157  0.09157185    -0.06000
C152        C  0.63895323  0.06368718  0.89686843    -0.05600
N153        N  0.45643363  0.10048464  0.05172872    -0.25100
N154        N  0.63458622  0.92238638  0.90182924    -0.45900
H155        H  0.67953489  0.04195729  0.09141969     0.07800
C156        C  0.37905751  0.94186384  0.09275919    -0.06000
Cl157      Cl  0.50992723  0.00124313  0.99588375    -0.49000
C158        C  0.38710947  0.88408928  0.88761659     0.43600
H159        H  0.46736071  0.17260855  0.09436267     0.07800
N160        N  0.43447184  0.87324416  0.08930574    -0.45700
C161        C  0.25632074  0.74667043  0.75018403    -0.01500
C162        C  0.88587676  0.11992614  0.39745396     0.43400
N163        N  0.93910331  0.05743781  0.41448191     0.02300
C164        C  0.94896376  0.90368350  0.63393216    -0.05600
H165        H  0.97363593  0.09889081  0.66920847     0.07800
C166        C  0.14256726  0.08746358  0.56051765    -0.05900
Co167      Co  0.90934451  0.99935763  0.51011570     0.74200
N168        N  0.95660038  0.05465144  0.60004135    -0.25100
Co169      Co  0.01382127  0.99651953  0.59530529     0.74100
C170        C  0.12833069  0.11010402  0.61078426     0.43500
N171        N  0.09523624  0.05254475  0.43664470     0.01900
N172        N  0.07241166  0.05137850  0.59003320     0.02000
N173        N  0.87912543  0.90729341  0.58020538    -0.46000
H174        H  0.83665968  0.10270120  0.46994840     0.07800
N175        N  0.91697318  0.05571001  0.56731954     0.02300
N176        N  0.07043927  0.93846577  0.58919142     0.02000
C177        C  0.12444834  0.87691138  0.60775156     0.43600
N178        N  0.05540805  0.05486618  0.40424249    -0.24600
C179        C  0.86814345  0.90581152  0.44391817    -0.05500
N180        N  0.92792614  0.09363116  0.37963997    -0.45700
N181        N  0.08247917  0.90370994  0.62515139    -0.45900
C182        C  0.88186988  0.88274742  0.39393317     0.43400
N183        N  0.91501944  0.94222337  0.56738251     0.02300
N184        N  0.05321403  0.94261775  0.40063899    -0.24600
N185        N  0.90571683  0.05699477  0.45330960    -0.25100
N186        N  0.09208242  0.93909732  0.43397107     0.01900
H187        H  0.04026674  0.91060100  0.32531591     0.07800
H188        H  0.17002177  0.88987292  0.53171333     0.07800
N189        N  0.95550411  0.94138857  0.59892775    -0.25100
N190        N  0.10590782  0.05096331  0.55133475    -0.24700
N191        N  0.93703009  0.94328408  0.41256772     0.02300
C192        C  0.90028684  0.11736044  0.62080049     0.43700
C193        C  0.06541453  0.09147480  0.36858059    -0.06000
N194        N  0.10265349  0.93712971  0.54945934    -0.24700
H195        H  0.17615230  0.09521791  0.53630789     0.07800
N196        N  0.88190485  0.09189304  0.57893755    -0.46000
H197        H  0.04122523  0.09997754  0.33530491     0.07800
C198        C  0.11318502  0.88610175  0.37243146     0.43500
C199        C  0.87045531  0.09516330  0.44593360    -0.03100
Co200      Co  0.99584718  0.99965383  0.40719263     0.73800
N201        N  0.13337500  0.08506811  0.42426761    -0.45700
C202        C  0.89796283  0.88149665  0.62191131     0.43800
N203        N  0.92484939  0.90814134  0.37688225    -0.45700
Co204      Co  0.09985724  0.99472824  0.49272195     0.73900
C205        C  0.13755167  0.89877824  0.55701364    -0.06000
C206        C  0.94931355  0.09217131  0.63563068    -0.05600
N207        N  0.90419445  0.94308625  0.45192395    -0.25100
N208        N  0.08467347  0.08539032  0.62648546    -0.45900
H209        H  0.97574738  0.89498732  0.66510191     0.07800
C210        C  0.06296534  0.91101537  0.36053862    -0.06000
Cl211      Cl  0.00475301  0.99750066  0.50128289    -0.49000
C212        C  0.11747427  0.11118618  0.38184215     0.43600
H213        H  0.83503665  0.89783002  0.46869914     0.07800
N214        N  0.12868746  0.90594624  0.41852444    -0.45700
C215        C  0.75393375  0.74979094  0.25129265    -0.01500
C216        C  0.25580075  0.24127091  0.24962973    -0.01500
C217        C  0.75554372  0.24889609  0.25377236    -0.01500
C218        C  0.25463289  0.75014315  0.24415802    -0.01500
C219        C  0.25269086  0.25063760  0.74894653    -0.01500
C220        C  0.75612956  0.74542201  0.74505649    -0.01500
C221        C  0.15932341  0.14463179  0.64561659    -0.04400
C222        C  0.13347328  0.18027133  0.67818790    -0.01500
C223        C  0.16130645  0.20921809  0.71582996     0.03500
C224        C  0.21783317  0.21133115  0.71514804    -0.04400
C225        C  0.24297394  0.17350754  0.68158995    -0.01500
C226        C  0.21370316  0.13897325  0.65010150     0.03500
C227        C  0.07715108  0.18718694  0.67343396     0.38100
C228        C  0.29914392  0.17108609  0.67420012     0.38100
C229        C  0.24021746  0.09678882  0.62278976     0.36500
C230        C  0.12911562  0.23017581  0.75711832     0.36500
N231        N  0.26174535  0.06321245  0.60153848    -0.38300
N232        N  0.10116281  0.24441848  0.78942538    -0.38300
N233        N  0.34292587  0.16548600  0.66423267    -0.37700
N234        N  0.03239623  0.19301865  0.67000216    -0.37700
C235        C  0.22496598  0.20139198  0.28618478    -0.04400
C236        C  0.19312408  0.16018542  0.26439333    -0.01500
C237        C  0.15947908  0.12981643  0.29582181     0.03500
C238        C  0.15418506  0.14114577  0.34880722    -0.04400
C239        C  0.18813557  0.17756095  0.37168144    -0.01500
C240        C  0.22684332  0.20273575  0.34200180     0.03500
C241        C  0.19194984  0.14861261  0.20952288     0.38100
C242        C  0.18369393  0.18914644  0.42663297     0.38100
C243        C  0.27175884  0.22094940  0.37138127     0.36500
C244        C  0.13019803  0.08667134  0.27312162     0.36500
N245        N  0.30717847  0.23321261  0.39659954    -0.38300
N246        N  0.10703984  0.05236105  0.25483331    -0.38300
N247        N  0.18011105  0.19864513  0.47025100    -0.37700
N248        N  0.18896343  0.13582152  0.16668470    -0.37700
C249        C  0.86713577  0.84350015  0.65274544    -0.04400
C250        C  0.83569621  0.80689747  0.62703890    -0.01500
C251        C  0.80148144  0.77379022  0.65475585     0.03500
C252        C  0.79649534  0.77791018  0.71053952    -0.04400
C253        C  0.83416083  0.81148913  0.73574772    -0.01500
C254        C  0.86767222  0.84454721  0.70711075     0.03500
C255        C  0.84080726  0.80132707  0.57111056     0.38100
C256        C  0.83588297  0.81798809  0.79152914     0.38100
C257        C  0.89914868  0.88321362  0.73444614     0.36500
C258        C  0.77798175  0.73268924  0.62355242     0.36500
N259        N  0.92363988  0.91384448  0.75694857    -0.38300
N260        N  0.76195355  0.70042016  0.59630804    -0.38300
N261        N  0.84004820  0.82671234  0.83524898    -0.37700
N262        N  0.84509961  0.79661912  0.52680641    -0.37700
C263        C  0.21520420  0.78854785  0.27444868    -0.04400
C264        C  0.15871512  0.78868523  0.26847674    -0.01500
C265        C  0.12623494  0.82018484  0.30024492     0.03500
C266        C  0.14766120  0.85500054  0.33674671    -0.04400
C267        C  0.20240904  0.86158650  0.33768632    -0.01500
C268        C  0.23560531  0.82983460  0.30689544     0.03500
C269        C  0.13109030  0.76291166  0.22633945     0.38100
C270        C  0.22555794  0.90164879  0.37064864     0.38100
C271        C  0.29122116  0.83944748  0.31282651     0.36500
C272        C  0.06991145  0.81812174  0.29252529     0.36500
N273        N  0.33426721  0.85119543  0.32052673    -0.38300
N274        N  0.02565982  0.81646614  0.28322862    -0.38300
N275        N  0.24433990  0.93318704  0.39695525    -0.37700
N276        N  0.10632954  0.74501146  0.19320274    -0.37700
C277        C  0.84930493  0.84871092  0.36002252    -0.04400
C278        C  0.79592984  0.85871861  0.35234368    -0.01500
C279        C  0.76571577  0.82593290  0.31974623     0.03500
C280        C  0.78968774  0.78621434  0.28743358    -0.04400
C281        C  0.84599222  0.78247728  0.29177950    -0.01500
C282        C  0.87293929  0.80813447  0.33221520     0.03500
C283        C  0.77113271  0.90207718  0.37938585     0.38100
C284        C  0.87979578  0.75883649  0.25344326     0.38100
C285        C  0.92391523  0.78932227  0.34866086     0.36500
C286        C  0.70959261  0.83197874  0.32487290     0.36500
N287        N  0.96333988  0.77309006  0.36373377    -0.38300
N288        N  0.66585243  0.84020550  0.33310649    -0.38300
N289        N  0.90938569  0.74232859  0.22372832    -0.37700
N290        N  0.75104758  0.93634429  0.40093524    -0.37700
C291        C  0.85138045  0.15122062  0.36344914    -0.04400
C292        C  0.82088207  0.12620480  0.32594247    -0.01500
C293        C  0.78861368  0.15535609  0.29195571     0.03500
C294        C  0.78937113  0.21228962  0.29191583    -0.04400
C295        C  0.81974163  0.23600634  0.33324946    -0.01500
C296        C  0.84927680  0.20553394  0.36842909     0.03500
C297        C  0.82090201  0.06912119  0.32431437     0.38100
C298        C  0.82578439  0.29218521  0.33895029     0.38100
C299        C  0.87942551  0.23038380  0.40945711     0.36500
C300        C  0.75184520  0.12355116  0.26291476     0.36500
N301        N  0.90334233  0.25012575  0.44212343    -0.38300
N302        N  0.72301809  0.09538598  0.24232719    -0.38300
N303        N  0.83433428  0.33602059  0.34657795    -0.37700
N304        N  0.82079912  0.02381291  0.32340265    -0.37700
C305        C  0.15687415  0.84209641  0.64130781    -0.04400
C306        C  0.21161744  0.84634023  0.64187732    -0.01500
C307        C  0.24233657  0.81360344  0.67386266     0.03500
C308        C  0.21896021  0.77912792  0.71177059    -0.04400
C309        C  0.16238281  0.77489520  0.70920378    -0.01500
C310        C  0.13261843  0.80618459  0.67464019     0.03500
C311        C  0.23680685  0.88886084  0.61387262     0.38100
C312        C  0.13204459  0.73596309  0.73686300     0.38100
C313        C  0.07588277  0.80049021  0.67254971     0.36500
C314        C  0.29848364  0.82107696  0.66954826     0.36500
N315        N  0.03085175  0.79577186  0.67112720    -0.38300
N316        N  0.34220058  0.83073074  0.66285012    -0.38300
N317        N  0.10508351  0.70534785  0.75636133    -0.37700
N318        N  0.25715275  0.92309477  0.59256250    -0.37700
C319        C  0.71996706  0.21561885  0.21413358    -0.04400
C320        C  0.74462321  0.18676134  0.17258513    -0.01500
C321        C  0.71518917  0.15636294  0.13707978     0.03500
C322        C  0.66099310  0.14965020  0.14349452    -0.04400
C323        C  0.63555273  0.17769692  0.18278888    -0.01500
C324        C  0.66323599  0.21395241  0.21405836     0.03500
C325        C  0.80101840  0.18398649  0.16664159     0.38100
C326        C  0.57991740  0.16903912  0.19146819     0.38100
C327        C  0.63024076  0.25237227  0.23940051     0.36500
C328        C  0.74152008  0.13165739  0.09360371     0.36500
N329        N  0.60163720  0.28250562  0.25732299    -0.38300
N330        N  0.76294819  0.11206900  0.05925178    -0.38300
N331        N  0.53580565  0.16188681  0.19876780    -0.37700
N332        N  0.84527306  0.17897217  0.15861271    -0.37700
C333        C  0.36088611  0.14847676  0.14559858    -0.04400
C334        C  0.35549495  0.13448189  0.19755966    -0.01500
C335        C  0.32200979  0.16331042  0.23063618     0.03500
C336        C  0.28912930  0.20499834  0.21100040    -0.04400
C337        C  0.28761955  0.20909852  0.15518313    -0.01500
C338        C  0.32652936  0.18524882  0.12424593     0.03500
C339        C  0.38536355  0.09021853  0.21710855     0.38100
C340        C  0.24274878  0.22854200  0.12665132     0.38100
C341        C  0.32868838  0.19559328  0.06896398     0.36500
C342        C  0.32434787  0.14915503  0.28477903     0.36500
N343        N  0.33028763  0.20372614  0.02498517    -0.38300
N344        N  0.32874189  0.13401711  0.32670672    -0.38300
N345        N  0.20739014  0.24181110  0.10189384    -0.37700
N346        N  0.40872052  0.05455419  0.23220492    -0.37700
C347        C  0.35689377  0.85646493  0.14799952    -0.04400
C348        C  0.37910095  0.81724345  0.17919812    -0.01500
C349        C  0.34856999  0.78961934  0.21556571     0.03500
C350        C  0.29208012  0.78926622  0.21245298    -0.04400
C351        C  0.27000245  0.82914942  0.17946056    -0.01500
C352        C  0.30191509  0.86244227  0.14885315     0.03500
C353        C  0.43372583  0.80290055  0.17314066     0.38100
C354        C  0.21405528  0.83484178  0.17164740     0.38100
C355        C  0.27635514  0.89840899  0.11329540     0.36500
C356        C  0.37815630  0.76896317  0.25895641     0.36500
N357        N  0.25471420  0.92627028  0.08520974    -0.38300
N358        N  0.40357287  0.75456791  0.29320368    -0.38300
N359        N  0.17079766  0.84321839  0.16128637    -0.37700
N360        N  0.47642057  0.78903792  0.16745667    -0.37700
C361        C  0.71551010  0.78301688  0.77533860    -0.04400
C362        C  0.71432077  0.83984669  0.77262672    -0.01500
C363        C  0.68155092  0.86995907  0.80561153     0.03500
C364        C  0.64628084  0.84592374  0.83985430    -0.04400
C365        C  0.64099972  0.79085153  0.83762411    -0.01500
C366        C  0.67377665  0.76011083  0.80527949     0.03500
C367        C  0.74062865  0.87019679  0.73294275     0.38100
C368        C  0.60487344  0.76387106  0.87185157     0.38100
C369        C  0.66585996  0.70385441  0.80794212     0.36500
C370        C  0.68219114  0.92692029  0.80205255     0.36500
N371        N  0.65620110  0.65986187  0.81276515    -0.38300
N372        N  0.68275569  0.97210853  0.79871772    -0.38300
N373        N  0.57675114  0.74089612  0.89858745    -0.37700
N374        N  0.75903637  0.89680779  0.70160938    -0.37700
C375        C  0.35948789  0.14512377  0.84155874    -0.04400
C376        C  0.30489181  0.13712045  0.84005434    -0.01500
C377        C  0.27203920  0.16939400  0.80935884     0.03500
C378        C  0.29254479  0.21216767  0.77889745    -0.04400
C379        C  0.34915957  0.21376292  0.77525767    -0.01500
C380        C  0.38130644  0.18134008  0.80668463     0.03500
C381        C  0.28110898  0.09695212  0.87225107     0.38100
C382        C  0.37743849  0.24284980  0.73603250     0.38100
C383        C  0.43787371  0.18282281  0.79990431     0.36500
C384        C  0.21629236  0.15966834  0.81427591     0.36500
N385        N  0.48271267  0.18443773  0.79377172    -0.38300
N386        N  0.17295385  0.14853122  0.82111705    -0.38300
N387        N  0.40293515  0.26320132  0.70497945    -0.37700
N388        N  0.26169344  0.06513721  0.89766059    -0.37700
C389        C  0.65915931  0.86177017  0.15405865    -0.04400
C390        C  0.63433674  0.83320767  0.19310593    -0.01500
C391        C  0.66189308  0.79535135  0.22260930     0.03500
C392        C  0.71845438  0.79123319  0.21977169    -0.04400
C393        C  0.74337901  0.83154268  0.18908798    -0.01500
C394        C  0.71422526  0.86310174  0.15409299     0.03500
C395        C  0.58168383  0.84867850  0.20787771     0.38100
C396        C  0.79978004  0.83838252  0.18834391     0.38100
C397        C  0.74165224  0.89510563  0.11643945     0.36500
C398        C  0.62947609  0.76607261  0.25834371     0.36500
N399        N  0.76383213  0.92021767  0.08635899    -0.38300
N400        N  0.60105153  0.74521216  0.28644503    -0.38300
N401        N  0.84431902  0.84610610  0.18563943    -0.37700
N402        N  0.54088190  0.86302694  0.22107402    -0.37700
C403        C  0.35375234  0.84979395  0.85408666    -0.04400
C404        C  0.32192202  0.87203806  0.81569155    -0.01500
C405        C  0.28517521  0.84126880  0.78839981     0.03500
C406        C  0.28808479  0.78463629  0.78879168    -0.04400
C407        C  0.32062035  0.76293014  0.82917550    -0.01500
C408        C  0.35113537  0.79531852  0.86213362     0.03500
C409        C  0.32710532  0.92735074  0.80321704     0.38100
C410        C  0.32741395  0.70698085  0.83597590     0.38100
C411        C  0.38098648  0.77172462  0.90396294     0.36500
C412        C  0.24147325  0.87079687  0.76750939     0.36500
N413        N  0.40476884  0.75265584  0.93706255    -0.38300
N414        N  0.20702566  0.89630452  0.75294192    -0.38300
N415        N  0.33595148  0.66331178  0.84433072    -0.37700
N416        N  0.33126313  0.97123145  0.79284776    -0.37700
C417        C  0.86680018  0.15001260  0.65438461    -0.04400
C418        C  0.82832789  0.12650092  0.68484917    -0.01500
C419        C  0.79598439  0.15702876  0.71743752     0.03500
C420        C  0.79635198  0.21392438  0.71487986    -0.04400
C421        C  0.83870461  0.23610108  0.68465556    -0.01500
C422        C  0.87327638  0.20420695  0.65567170     0.03500
C423        C  0.82366406  0.06957381  0.68421030     0.38100
C424        C  0.84673969  0.29194404  0.67887608     0.38100
C425        C  0.91432909  0.22749300  0.62421585     0.36500
C426        C  0.76981957  0.12673620  0.75714784     0.36500
N427        N  0.94680769  0.24591419  0.59893496    -0.38300
N428        N  0.75189639  0.09960518  0.78829876    -0.38300
N429        N  0.85710121  0.33533178  0.67108221    -0.37700
N430        N  0.82001330  0.02440019  0.68372261    -0.37700
C431        C  0.71738079  0.21892629  0.78190884    -0.04400
C432        C  0.67645180  0.18738547  0.75860901    -0.01500
C433        C  0.64374373  0.15466297  0.78883765     0.03500
C434        C  0.65270037  0.14895223  0.84187669    -0.04400
C435        C  0.68991862  0.18074070  0.86623135    -0.01500
C436        C  0.71795571  0.21885285  0.83793579     0.03500
C437        C  0.66888199  0.18401217  0.70313865     0.38100
C438        C  0.69802541  0.17542149  0.92169227     0.38100
C439        C  0.73950194  0.26065598  0.86940162     0.36500
C440        C  0.60209538  0.12438720  0.76481520     0.36500
N441        N  0.75405277  0.29341419  0.89688809    -0.38300
N442        N  0.56886754  0.10038455  0.74570342    -0.38300
N443        N  0.70458400  0.17098621  0.96573625    -0.37700
N444        N  0.65997757  0.17889720  0.65954868    -0.37700
C445        C  0.14941349  0.34333392  0.15328685    -0.04400
C446        C  0.12870341  0.30266545  0.18413006    -0.01500
C447        C  0.16026021  0.27596050  0.22053461     0.03500
C448        C  0.21660876  0.27939067  0.21898022    -0.04400
C449        C  0.23688476  0.32175026  0.18815586    -0.01500
C450        C  0.20363848  0.35415250  0.15794608     0.03500
C451        C  0.07424426  0.28695232  0.18000708     0.38100
C452        C  0.29263392  0.33150086  0.18334076     0.38100
C453        C  0.22713979  0.39697258  0.12907717     0.36500
C454        C  0.13119963  0.25292869  0.26303319     0.36500
N455        N  0.24647677  0.43089515  0.10640893    -0.38300
N456        N  0.10504400  0.23762906  0.29628224    -0.38300
N457        N  0.33609211  0.34225521  0.17664461    -0.37700
N458        N  0.03176196  0.27137371  0.17777717    -0.37700
C459        C  0.15802330  0.64099120  0.14778646    -0.04400
C460        C  0.19127842  0.67639390  0.12292324    -0.01500
C461        C  0.22576207  0.70855035  0.15176351     0.03500
C462        C  0.22352298  0.70982136  0.20782370    -0.04400
C463        C  0.19127631  0.66962523  0.23137611    -0.01500
C464        C  0.16056357  0.63514646  0.20127423     0.03500
C465        C  0.19154529  0.67771795  0.06660318     0.38100
C466        C  0.18304275  0.66579510  0.28667576     0.38100
C467        C  0.12894313  0.59470635  0.22569308     0.36500
C468        C  0.26516461  0.73490794  0.12098896     0.36500
N469        N  0.10387313  0.56246226  0.24500001    -0.38300
N470        N  0.29609029  0.75343501  0.09387946    -0.38300
N471        N  0.17255780  0.65945488  0.32972797    -0.37700
N472        N  0.19192123  0.67833627  0.02186904    -0.37700
C473        C  0.78781588  0.71316510  0.21307024    -0.04400
C474        C  0.81654433  0.66814396  0.23218277    -0.01500
C475        C  0.84798397  0.63713039  0.19884844     0.03500
C476        C  0.85814977  0.65350674  0.14823591    -0.04400
C477        C  0.83231891  0.69771500  0.12917425    -0.01500
C478        C  0.79149725  0.72078507  0.15782130     0.03500
C479        C  0.81763149  0.65317417  0.28616048     0.38100
C480        C  0.84660614  0.71920190  0.07919980     0.38100
C481        C  0.74958547  0.74172515  0.12619768     0.36500
C482        C  0.87313575  0.58975689  0.21765092     0.36500
N483        N  0.71671758  0.75634904  0.09894849    -0.38300
N484        N  0.89320271  0.55197261  0.23232176    -0.38300
N485        N  0.85886015  0.73775159  0.04025414    -0.37700
N486        N  0.82123459  0.63780360  0.32808489    -0.37700
C487        C  0.22480089  0.70782230  0.78803419    -0.04400
C488        C  0.19297145  0.72890020  0.82928306    -0.01500
C489        C  0.16366618  0.69613914  0.86269875     0.03500
C490        C  0.16129968  0.64170791  0.85450765    -0.04400
C491        C  0.19306113  0.61967230  0.81590491    -0.01500
C492        C  0.22795578  0.65113298  0.78680184     0.03500
C493        C  0.18580088  0.78465325  0.83711481     0.38100
C494        C  0.19006594  0.56371193  0.80562125     0.38100
C495        C  0.27005497  0.62221164  0.76223741     0.36500
C496        C  0.13538172  0.71929412  0.90587219     0.36500
N497        N  0.30328521  0.59702330  0.74467783    -0.38300
N498        N  0.11294542  0.73797985  0.94008838    -0.38300
N499        N  0.18790788  0.51925581  0.79711924    -0.37700
N500        N  0.17667231  0.82786564  0.84709421    -0.37700
C501        C  0.79371356  0.71243694  0.78343758    -0.04400
C502        C  0.83696549  0.68185596  0.76283430    -0.01500
C503        C  0.87010486  0.65162420  0.79518212     0.03500
C504        C  0.86025652  0.64760930  0.84807657    -0.04400
C505        C  0.81971937  0.67702856  0.86984616    -0.01500
C506        C  0.79008635  0.71242120  0.83944781     0.03500
C507        C  0.84801258  0.67736615  0.70809067     0.38100
C508        C  0.80966810  0.67204845  0.92497831     0.38100
C509        C  0.76291387  0.75186817  0.86944718     0.36500
C510        C  0.91345311  0.62187659  0.77348610     0.36500
N511        N  0.74386642  0.78272956  0.89633248    -0.38300
N512        N  0.94785341  0.59814057  0.75625264    -0.38300
N513        N  0.80133775  0.66737897  0.96867591    -0.37700
N514        N  0.86110557  0.67060317  0.66578376    -0.37700
C515        C  0.15014375  0.34650887  0.85426013    -0.04400
C516        C  0.15136949  0.35626995  0.80124747    -0.01500
C517        C  0.18411012  0.32652493  0.76823981     0.03500
C518        C  0.21848694  0.28598971  0.78809423    -0.04400
C519        C  0.22115210  0.28308877  0.84414582    -0.01500
C520        C  0.18482658  0.31021116  0.87569663     0.03500
C521        C  0.11707346  0.39658895  0.78039453     0.38100
C522        C  0.26424302  0.25986859  0.87255107     0.38100
C523        C  0.18480154  0.30285429  0.93155768     0.36500
C524        C  0.17822689  0.33774022  0.71366991     0.36500
N525        N  0.18478500  0.29720314  0.97595039    -0.38300
N526        N  0.17009065  0.35063480  0.67154981    -0.38300
N527        N  0.29807564  0.24370137  0.89771326    -0.37700
N528        N  0.08974212  0.42868776  0.76405377    -0.37700
C529        C  0.85057213  0.35390086  0.15123406    -0.04400
C530        C  0.87470654  0.32655797  0.19162145    -0.01500
C531        C  0.84757521  0.28703294  0.21863339     0.03500
C532        C  0.79112391  0.28407839  0.21654251    -0.04400
C533        C  0.76694608  0.31470259  0.17598576    -0.01500
C534        C  0.79713987  0.34544296  0.14167211     0.03500
C535        C  0.92723807  0.34116343  0.20749439     0.38100
C536        C  0.71066854  0.31998700  0.17084027     0.38100
C537        C  0.77257628  0.36863737  0.09645968     0.36500
C538        C  0.88084063  0.24729001  0.24145561     0.36500
N539        N  0.75277471  0.38666018  0.06037184    -0.38300
N540        N  0.90911190  0.21589555  0.25767266    -0.38300
N541        N  0.66657287  0.32780520  0.16420061    -0.37700
N542        N  0.96826588  0.35443384  0.22119538    -0.37700
C543        C  0.85816397  0.35359908  0.84657587    -0.04400
C544        C  0.82751419  0.37700472  0.80795286    -0.01500
C545        C  0.79638851  0.34623163  0.77419540     0.03500
C546        C  0.79477161  0.28954619  0.77856241    -0.04400
C547        C  0.83337316  0.26718444  0.81279370    -0.01500
C548        C  0.86202359  0.29861419  0.84790096     0.03500
C549        C  0.83016003  0.43355562  0.80077335     0.38100
C550        C  0.84187154  0.21116022  0.81701345     0.38100
C551        C  0.89174628  0.27322330  0.88887758     0.36500
C552        C  0.77232036  0.37556844  0.73237070     0.36500
N553        N  0.91464828  0.25270094  0.92173552    -0.38300
N554        N  0.75547660  0.40137977  0.69955314    -0.38300
N555        N  0.85196338  0.16748381  0.82344594    -0.37700
N556        N  0.83213024  0.47839502  0.79455675    -0.37700
C557        C  0.65494962  0.64750413  0.64019135    -0.04400
C558        C  0.64779439  0.70182106  0.64425247    -0.01500
C559        C  0.68036269  0.73232782  0.67669102     0.03500
C560        C  0.71914520  0.70878736  0.71022763    -0.04400
C561        C  0.71955528  0.65209051  0.71054772    -0.01500
C562        C  0.69078254  0.62289819  0.67350587     0.03500
C563        C  0.60600461  0.72716247  0.61530813     0.38100
C564        C  0.74321690  0.62090100  0.75115031     0.38100
C565        C  0.69766707  0.56638032  0.67031925     0.36500
C566        C  0.67491278  0.78842211  0.67024612     0.36500
N567        N  0.70327087  0.52146820  0.66809009    -0.38300
N568        N  0.66659107  0.83188533  0.66072164    -0.38300
N569        N  0.75977421  0.59376987  0.78305862    -0.37700
N570        N  0.57293248  0.74782686  0.59253301    -0.37700
C571        C  0.34428543  0.36363553  0.65152834    -0.04400
C572        C  0.34479463  0.36686798  0.70593810    -0.01500
C573        C  0.31321444  0.33316189  0.73616594     0.03500
C574        C  0.28183987  0.29251670  0.71288320    -0.04400
C575        C  0.27685659  0.29549458  0.65703733    -0.01500
C576        C  0.30921201  0.32899085  0.62750852     0.03500
C577        C  0.38201976  0.40091643  0.73210911     0.38100
C578        C  0.23518890  0.27079282  0.62750982     0.38100
C579        C  0.30479721  0.32907245  0.57126043     0.36500
C580        C  0.31820787  0.33901444  0.79178006     0.36500
N581        N  0.30106145  0.32883647  0.52665714    -0.38300
N582        N  0.32498137  0.34736319  0.83525476    -0.38300
N583        N  0.20232993  0.25377249  0.60159421    -0.37700
N584        N  0.41157486  0.42726964  0.75394738    -0.37700
C585        C  0.65556538  0.34259104  0.36309290    -0.04400
C586        C  0.65684250  0.28756323  0.36506984    -0.01500
C587        C  0.68983371  0.25870415  0.33160620     0.03500
C588        C  0.72167591  0.28405599  0.29285078    -0.04400
C589        C  0.72345842  0.34082140  0.29604293    -0.01500
C590        C  0.69023042  0.36879727  0.33002118     0.03500
C591        C  0.62103403  0.25932145  0.39870432     0.38100
C592        C  0.76170453  0.37344921  0.26989825     0.38100
C593        C  0.69371695  0.42577341  0.33280570     0.36500
C594        C  0.68530980  0.20212075  0.33521117     0.36500
N595        N  0.69702061  0.47092446  0.33489249    -0.38300
N596        N  0.67818057  0.15777482  0.34106762    -0.38300
N597        N  0.79143304  0.40223429  0.25164863    -0.37700
N598        N  0.59286067  0.23585642  0.42495993    -0.37700
C599        C  0.35075611  0.64097931  0.34336477    -0.04400
C600        C  0.31438282  0.67449910  0.36693373    -0.01500
C601        C  0.28313758  0.70938885  0.33730311     0.03500
C602        C  0.28740844  0.71172831  0.28141549    -0.04400
C603        C  0.32204062  0.67323587  0.25861024    -0.01500
C604        C  0.35449668  0.64067197  0.28919116     0.03500
C605        C  0.30747918  0.67144542  0.42275767     0.38100
C606        C  0.32994032  0.66887987  0.20319617     0.38100
C607        C  0.39545919  0.61019536  0.26419159     0.36500
C608        C  0.24408709  0.73738824  0.36708969     0.36500
N609        N  0.42817156  0.58666382  0.24374056    -0.38300
N610        N  0.21334138  0.75685580  0.39377863    -0.38300
N611        N  0.34018672  0.66207787  0.16014182    -0.37700
N612        N  0.30172368  0.66897262  0.46705357    -0.37700
C613        C  0.65492877  0.63659981  0.34243749    -0.04400
C614        C  0.68976161  0.67004359  0.36846782    -0.01500
C615        C  0.72329573  0.70430395  0.34104498     0.03500
C616        C  0.72029424  0.70927810  0.28520232    -0.04400
C617        C  0.68783772  0.67079781  0.25976667    -0.01500
C618        C  0.65534800  0.63597799  0.28799642     0.03500
C619        C  0.69365759  0.66701055  0.42467465     0.38100
C620        C  0.68388161  0.66761687  0.20389555     0.38100
C621        C  0.61939745  0.60214108  0.25996757     0.36500
C622        C  0.76454647  0.72687905  0.37268920     0.36500
N623        N  0.59101955  0.57571793  0.23673615    -0.38300
N624        N  0.79661491  0.74193561  0.40066222    -0.38300
N625        N  0.67783578  0.66151761  0.15996861    -0.37700
N626        N  0.69738618  0.66488861  0.46921667    -0.37700
C627        C  0.65069533  0.35062950  0.64767361    -0.04400
C628        C  0.64239999  0.34525325  0.70095372    -0.01500
C629        C  0.67729427  0.31570229  0.73164738     0.03500
C630        C  0.71864969  0.28455195  0.70896991    -0.04400
C631        C  0.72009918  0.28441229  0.65298646    -0.01500
C632        C  0.68970076  0.32032248  0.62390645     0.03500
C633        C  0.59678747  0.36946046  0.72468795     0.38100
C634        C  0.74662629  0.24492269  0.62240480     0.38100
C635        C  0.69858258  0.32595066  0.56860930     0.36500
C636        C  0.67104219  0.32222015  0.78697428     0.36500
N637        N  0.70593357  0.33055801  0.52470120    -0.38300
N638        N  0.66239192  0.33106540  0.83000222    -0.38300
N639        N  0.76561223  0.21388039  0.59567765    -0.37700
N640        N  0.56036006  0.38824500  0.74372404    -0.37700
C641        C  0.35597323  0.65506835  0.63911936    -0.04400
C642        C  0.30162031  0.65586141  0.63430795    -0.01500
C643        C  0.27058030  0.68393800  0.67011888     0.03500
C644        C  0.29374718  0.71541324  0.71089839    -0.04400
C645        C  0.35051829  0.71803977  0.71030166    -0.01500
C646        C  0.38028566  0.68527576  0.67735206     0.03500
C647        C  0.27730336  0.62452770  0.59385233     0.38100
C648        C  0.38128752  0.75708463  0.73743020     0.38100
C649        C  0.43711923  0.68347628  0.68184047     0.36500
C650        C  0.21471150  0.67473964  0.66617063     0.36500
N651        N  0.48222959  0.68180460  0.68557323    -0.38300
N652        N  0.17118397  0.66382815  0.66005404    -0.38300
N653        N  0.40854943  0.78792528  0.75628506    -0.37700
N654        N  0.25798289  0.59941122  0.56182628    -0.37700
C655        C  0.35252590  0.34338110  0.35312575    -0.04400
C656        C  0.37773092  0.30970578  0.31848206    -0.01500
C657        C  0.34867054  0.28079560  0.28160174     0.03500
C658        C  0.29194462  0.28005270  0.28289305    -0.04400
C659        C  0.26807369  0.31840733  0.31683258    -0.01500
C660        C  0.29838211  0.34937795  0.35085825     0.03500
C661        C  0.43464451  0.30625781  0.31979275     0.38100
C662        C  0.21206149  0.32604857  0.32072530     0.38100
C663        C  0.27361652  0.38715906  0.38520119     0.36500
C664        C  0.37984276  0.25907487  0.23997562     0.36500
N665        N  0.25419705  0.41726785  0.41258831    -0.38300
N666        N  0.40732520  0.24449825  0.20742954    -0.38300
N667        N  0.16843776  0.33619647  0.32725845    -0.37700
N668        N  0.47985013  0.30352677  0.32075166    -0.37700
loop_ 
_geom_bond_atom_site_label_1 
_geom_bond_atom_site_label_2 
_geom_bond_distance 
_geom_bond_site_symmetry_2 
_ccdc_geom_bond_type 
C1           N19   1.344       .  A
C1           C38   1.459       .  S
C1          C655   1.474       .  S
N2           N19   1.321       .  A
N2           N24   1.320       .  A
N2          Co39   2.068       .  S
C3           N28   1.341       .  A
C3           C41   1.466       .  S
C3           H48   1.081       .  S
H4           C45   1.080       .  S
C5           N29   1.342       .  A
C5            C9   1.460       .  S
C5           H34   1.081       .  S
Co6          N24   2.085       .  S
Co6          N14   2.081       .  S
Co6          N46   2.068       .  S
Co6          N22   2.071       .  S
Co6         Cl50   2.454       .  S
N7           C45   1.336       .  A
N7           N14   1.317       .  A
N7           Co8   2.069       .  S
Co8          N11   2.076       .  S
Co8          N28   2.090       .  S
Co8          N15   2.067       .  S
Co8         Cl50   2.438       .  S
C9           N47   1.346       .  A
C9          C641   1.479       .  S
N10          N17   1.319       .  A
N10          N40   1.325       .  A
N10         Co43   2.089       .  S
N11          N29   1.320       .  A
N11          N47   1.323       .  A
N12          C41   1.348       .  A
N12          N22   1.323       .  A
H13          C38   1.081       .  S
N14          N35   1.322       .  A
N15          N33   1.319       .  A
N15          N20   1.321       .  A
C16          N20   1.347       .  A
C16          C44   1.469       .  S
C16         C557   1.493       .  S
N17          C32   1.339       .  A
N17         Co39   2.084       .  S
C18          N46   1.336       .  A
C18          C21   1.461       .  S
C18          H52   1.080       .  S
C21          N42   1.353       .  A
C21         C585   1.492       .  S
N22          N28   1.318       .  A
N23          C49   1.341       .  A
N23          N25   1.318       .  A
N23         Co39   2.082       .  S
N24          C38   1.342       .  A
N25          N53   1.322       .  A
N25         Co43   2.080       .  S
H26          C49   1.080       .  S
H27          C44   1.081       .  S
N29         Co43   2.087       .  S
N30          N42   1.322       .  A
N30          N46   1.318       .  A
N30         Co39   2.083       .  S
C31          N35   1.353       .  A
C31          C45   1.461       .  S
C31         C571   1.493       .  S
C32          C51   1.464       .  S
C32          H36   1.081       .  S
N33          C44   1.341       .  A
N33         Co43   2.095       .  S
C37          N53   1.351       .  A
C37          C49   1.466       .  S
C37         C613   1.498       .  S
Co39        Cl50   2.440       .  S
N40          C51   1.353       .  A
C41         C627   1.490       .  S
Co43        Cl50   2.455       .  S
C51         C599   1.498       .  S
C54          N72   1.347       .  A
C54          C91   1.459       .  S
C54         C515   1.479       .  S
N55          N72   1.323       .  A
N55          N77   1.320       .  A
N55         Co92   2.077   1_556  S
C56          N81   1.341       .  A
C56          C94   1.462       .  S
C56         H101   1.082       .  S
H57          C98   1.081       .  S
C58          N82   1.342       .  A
C58          C62   1.461       .  S
C58          H87   1.082       .  S
Co59         N77   2.085   1_654  S
Co59         N67   2.071   1_554  S
Co59         N99   2.074   1_655  S
Co59         N75   2.091       .  S
Co59       Cl103   2.449   1_655  S
N60          C98   1.339       .  A
N60          N67   1.318       .  A
N60         Co61   2.081   1_556  S
Co61         N64   2.089   1_554  S
Co61         N81   2.084       .  S
Co61         N68   2.090       .  S
Co61       Cl103   2.453   1_655  S
C62         N100   1.350       .  A
C62         C504   1.487       .  S
N63          N70   1.319       .  A
N63          N93   1.324       .  A
N63         Co96   2.086       .  S
N64          N82   1.321       .  A
N64         N100   1.325       .  A
N65          C94   1.350       .  A
N65          N75   1.324       .  A
H66          C91   1.082       .  S
N67          N88   1.320       .  A
N68          N86   1.321       .  A
N68          N73   1.325       .  A
C69          N73   1.350       .  A
C69          C97   1.459       .  S
C69         C476   1.484       .  S
N70          C85   1.341       .  A
N70         Co92   2.085   1_556  S
C71          N99   1.338       .  A
C71          C74   1.472       .  S
C71         H105   1.077       .  S
C74          N95   1.355       .  A
C74         C445   1.515       .  S
N75          N81   1.321       .  A
N76         C102   1.336       .  A
N76          N78   1.320       .  A
N76         Co92   2.063       .  S
N77          C91   1.342       .  A
N78         N106   1.324       .  A
N78         Co96   2.094   1_554  S
H79         C102   1.081       .  S
H80          C97   1.082       .  S
N82         Co96   2.091   1_655  S
N83          N95   1.323       .  A
N83          N99   1.315       .  A
N83         Co92   2.092       .  S
C84          N88   1.348       .  A
C84          C98   1.466       .  S
C84         C543   1.494       .  S
C85         C104   1.465       .  S
C85          H89   1.081       .  S
N86          C97   1.343       .  A
N86         Co96   2.088   1_654  S
C90         N106   1.352       .  A
C90         C102   1.450       .  S
C90         C459   1.474       .  S
Co92       Cl103   2.445       .  S
N93         C104   1.352       .  A
C94         C529   1.489       .  S
Co96       Cl103   2.452   1_556  S
C104        C490   1.499       .  S
C107        C420   1.611       .  S
C107        C431   1.609       .  S
C107        C546   1.606       .  S
C107        C630   1.604       .  S
C108        N126   1.354       .  A
C108        C145   1.469       .  S
C108        C375   1.509       .  S
N109        N126   1.324       .  A
N109        N131   1.317       .  A
N109       Co146   2.088       .  S
C110        N135   1.341       .  A
C110        C148   1.463       .  S
C110        H155   1.081       .  S
H111        C152   1.081       .  S
C112        N136   1.335       .  A
C112        C116   1.462       .  S
C112        H141   1.079       .  S
Co113       N131   2.082       .  S
Co113       N121   2.084       .  S
Co113       N153   2.092   1_556  S
Co113       N129   2.089   1_556  S
Co113      Cl157   2.460       .  S
N114        C152   1.343       .  A
N114        N121   1.322       .  A
N114       Co115   2.097   1_545  S
Co115       N118   2.105       .  S
Co115       N135   2.091   1_566  S
Co115       N122   2.087   1_556  S
Co115      Cl157   2.456   1_565  S
C116        N154   1.360       .  A
C116        C364   1.509       .  S
N117        N124   1.318       .  A
N117        N147   1.325       .  A
N117       Co150   2.087       .  S
N118        N136   1.317       .  A
N118        N154   1.328       .  A
N119        C148   1.352       .  A
N119        N129   1.325       .  A
H120        C145   1.082       .  S
N121        N142   1.324       .  A
N122        N140   1.321       .  A
N122        N127   1.327       .  A
C123        N127   1.351       .  A
C123        C151   1.470       .  S
C123        C389   1.506       .  S
N124        C139   1.338       .  A
N124       Co146   2.077   1_565  S
C125        N153   1.345       .  A
C125        C128   1.464       .  S
C125        H159   1.081       .  S
C128        N149   1.343       .  A
C128        C333   1.479       .  S
N129        N135   1.321       .  A
N130        C156   1.335       .  A
N130        N132   1.317       .  A
N130       Co146   2.076   1_564  S
N131        C145   1.339       .  A
N132        N160   1.325       .  A
N132       Co150   2.088   1_554  S
H133        C156   1.079       .  S
H134        C151   1.081       .  S
N136       Co150   2.072       .  S
N137        N149   1.321       .  A
N137        N153   1.319       .  A
N137       Co146   2.070   1_554  S
C138        N142   1.348       .  A
C138        C152   1.464       .  S
C138        C434   1.482       .  S
C139        C158   1.463       .  S
C139        H143   1.081       .  S
N140        C151   1.343       .  A
N140       Co150   2.107   1_554  S
C144        N160   1.356       .  A
C144        C156   1.465       .  S
C144        C347   1.506       .  S
Co146      Cl157   2.436       .  S
N147        C158   1.353       .  A
C148        C322   1.496       .  S
Co150      Cl157   2.454   1_565  S
C158        C403   1.497       .  S
C161        C308   1.608       .  S
C161        C406   1.610       .  S
C161        C487   1.611       .  S
C161        C644   1.608       .  S
C162        N180   1.349       .  A
C162        C199   1.460       .  S
C162        C291   1.480       .  S
N163        N180   1.323       .  A
N163        N185   1.319       .  A
N163       Co200   2.078   1_545  S
C164        N189   1.333       .  A
C164        C202   1.454       .  S
C164        H209   1.080       .  S
H165        C206   1.081       .  S
C166        N190   1.342       .  A
C166        C170   1.469       .  S
C166        H195   1.081       .  S
Co167       N185   2.083   1_565  S
Co167       N175   2.072   1_565  S
Co167       N207   2.084       .  S
Co167       N183   2.086       .  S
Co167      Cl211   2.450   1_655  S
N168        C206   1.341       .  A
N168        N175   1.320       .  A
N168       Co169   2.088   1_645  S
Co169       N172   2.055   1_565  S
Co169       N189   2.052   1_455  S
Co169       N176   2.078       .  S
Co169      Cl211   2.443       .  S
C170        N208   1.345       .  A
C170        C221   1.488       .  S
N171        N178   1.319       .  A
N171        N201   1.320       .  A
N171       Co204   2.075   1_545  S
N172        N190   1.318       .  A
N172        N208   1.319       .  A
N173        C202   1.353       .  A
N173        N183   1.322       .  A
H174        C199   1.082       .  S
N175        N196   1.322       .  A
N176        N194   1.318       .  A
N176        N181   1.323       .  A
C177        N181   1.350       .  A
C177        C205   1.466       .  S
C177        C305   1.494       .  S
N178        C193   1.339       .  A
N178       Co200   2.076   1_445  S
C179        N207   1.340       .  A
C179        C182   1.463       .  S
C179        H213   1.081       .  S
C182        N203   1.350       .  A
C182        C277   1.488       .  S
N183        N189   1.317       .  A
N184        C210   1.337       .  A
N184        N186   1.318       .  A
N184       Co200   2.074   1_455  S
N185        C199   1.342       .  A
N186        N214   1.324       .  A
N186       Co204   2.089       .  S
H187        C210   1.080       .  S
H188        C205   1.081       .  S
N190       Co204   2.093   1_545  S
N191        N203   1.324       .  A
N191        N207   1.320       .  A
N191       Co200   2.086       .  S
C192        N196   1.347       .  A
C192        C206   1.460       .  S
C192        C417   1.477       .  S
C193        C212   1.463       .  S
C193        H197   1.082       .  S
N194        C205   1.339       .  A
N194       Co204   2.081       .  S
C198        N214   1.354       .  A
C198        C210   1.465       .  S
C198        C266   1.503       .  S
Co200      Cl211   2.445   1_655  S
N201        C212   1.348       .  A
C202        C249   1.484       .  S
Co204      Cl211   2.442       .  S
C212        C238   1.483       .  S
C215        C280   1.603       .  S
C215        C392   1.615       .  S
C215        C473   1.613       .  S
C215        C616   1.607       .  S
C216        C235   1.599       .  S
C216        C336   1.607       .  S
C216        C448   1.607       .  S
C216        C658   1.603       .  S
C217        C294   1.611       .  S
C217        C319   1.611       .  S
C217        C532   1.602       .  S
C217        C588   1.605       .  S
C218        C263   1.610       .  S
C218        C350   1.609       .  S
C218        C462   1.604       .  S
C218        C602   1.611       .  S
C219        C224   1.600       .  S
C219        C378   1.614       .  S
C219        C518   1.614       .  S
C219        C574   1.604       .  S
C220        C252   1.598       .  S
C220        C361   1.617       .  S
C220        C501   1.618       .  S
C220        C560   1.605       .  S
C221        C222   1.405       .  A
C221        C226   1.402       .  A
C222        C223   1.413       .  A
C222        C227   1.455       .  S
C223        C224   1.446       .  A
C223        C230   1.451       .  S
C224        C225   1.449       .  A
C225        C226   1.413       .  A
C225        C228   1.450       .  S
C226        C229   1.456       .  S
C227        N234   1.157       .  T
C228        N233   1.157       .  T
C229        N231   1.158       .  T
C230        N232   1.158       .  T
C235        C236   1.444       .  A
C235        C240   1.445       .  A
C236        C237   1.416       .  A
C236        C241   1.450       .  S
C237        C238   1.407       .  A
C237        C244   1.455       .  S
C238        C239   1.402       .  A
C239        C240   1.408       .  A
C239        C242   1.456       .  S
C240        C243   1.452       .  S
C241        N248   1.157       .  T
C242        N247   1.158       .  T
C243        N245   1.158       .  T
C244        N246   1.158       .  T
C249        C250   1.399       .  A
C249        C254   1.407       .  A
C250        C251   1.413       .  A
C250        C255   1.460       .  S
C251        C252   1.452       .  A
C251        C258   1.453       .  S
C252        C253   1.444       .  A
C253        C254   1.413       .  A
C253        C256   1.453       .  S
C254        C257   1.456       .  S
C255        N262   1.158       .  T
C256        N261   1.157       .  T
C257        N259   1.158       .  T
C258        N260   1.158       .  T
C263        C264   1.452       .  A
C263        C268   1.444       .  A
C264        C265   1.418       .  A
C264        C269   1.455       .  S
C265        C266   1.407       .  A
C265        C272   1.454       .  S
C266        C267   1.409       .  A
C267        C268   1.418       .  A
C267        C270   1.456       .  S
C268        C271   1.450       .  S
C269        N276   1.158       .  T
C270        N275   1.158       .  T
C271        N273   1.157       .  T
C272        N274   1.157       .  T
C277        C278   1.402       .  A
C277        C282   1.398       .  A
C278        C279   1.416       .  A
C278        C283   1.455       .  S
C279        C280   1.450       .  A
C279        C286   1.449       .  S
C280        C281   1.446       .  A
C281        C282   1.412       .  A
C281        C284   1.447       .  S
C282        C285   1.452       .  S
C283        N290   1.158       .  T
C284        N289   1.158       .  T
C285        N287   1.157       .  T
C286        N288   1.157       .  T
C291        C292   1.398       .  A
C291        C296   1.394       .  A
C292        C293   1.417       .  A
C292        C297   1.459       .  S
C293        C294   1.454       .  A
C293        C300   1.450       .  S
C294        C295   1.452       .  A
C295        C296   1.416       .  A
C295        C298   1.450       .  S
C296        C299   1.456       .  S
C297        N304   1.157       .  T
C298        N303   1.157       .  T
C299        N301   1.157       .  T
C300        N302   1.158       .  T
C305        C306   1.403       .  A
C305        C310   1.404       .  A
C306        C307   1.415       .  A
C306        C311   1.456       .  S
C307        C308   1.448       .  A
C307        C314   1.452       .  S
C308        C309   1.451       .  A
C309        C310   1.420       .  A
C309        C312   1.451       .  S
C310        C313   1.458       .  S
C311        N318   1.158       .  T
C312        N317   1.158       .  T
C313        N315   1.158       .  T
C314        N316   1.157       .  T
C319        C320   1.447       .  A
C319        C324   1.450       .  A
C320        C321   1.417       .  A
C320        C325   1.451       .  S
C321        C322   1.405       .  A
C321        C328   1.455       .  S
C322        C323   1.403       .  A
C323        C324   1.417       .  A
C323        C326   1.456       .  S
C324        C327   1.450       .  S
C325        N332   1.157       .  T
C326        N331   1.158       .  T
C327        N329   1.158       .  T
C328        N330   1.158       .  T
C333        C334   1.398       .  A
C333        C338   1.400       .  A
C334        C335   1.417       .  A
C334        C339   1.455       .  S
C335        C336   1.449       .  A
C335        C342   1.448       .  S
C336        C337   1.448       .  A
C337        C338   1.415       .  A
C337        C340   1.451       .  S
C338        C341   1.456       .  S
C339        N346   1.157       .  T
C340        N345   1.158       .  T
C341        N343   1.157       .  T
C342        N344   1.157       .  T
C347        C348   1.407       .  A
C347        C352   1.413       .  A
C348        C349   1.412       .  A
C348        C353   1.452       .  S
C349        C350   1.446       .  A
C349        C356   1.453       .  S
C350        C351   1.444       .  A
C351        C352   1.420       .  A
C351        C354   1.451       .  S
C352        C355   1.455       .  S
C353        N360   1.157       .  T
C354        N359   1.157       .  T
C355        N357   1.158       .  T
C356        N358   1.158       .  T
C361        C362   1.454       .  A
C361        C366   1.443       .  A
C362        C363   1.422       .  A
C362        C367   1.452       .  S
C363        C364   1.406       .  A
C363        C370   1.458       .  S
C364        C365   1.414       .  A
C365        C366   1.421       .  A
C365        C368   1.454       .  S
C366        C369   1.453       .  S
C367        N374   1.158       .  T
C368        N373   1.158       .  T
C369        N371   1.157       .  T
C370        N372   1.158       .  T
C375        C376   1.411       .  A
C375        C380   1.408       .  A
C376        C377   1.420       .  A
C376        C381   1.455       .  S
C377        C378   1.446       .  A
C377        C384   1.452       .  S
C378        C379   1.450       .  A
C379        C380   1.422       .  A
C379        C382   1.451       .  S
C380        C383   1.457       .  S
C381        N388   1.158       .  T
C382        N387   1.158       .  T
C383        N385   1.158       .  T
C384        N386   1.157       .  T
C389        C390   1.399       .  A
C389        C394   1.408       .  A
C390        C391   1.419       .  A
C390        C395   1.454       .  S
C391        C392   1.451       .  A
C391        C398   1.450       .  S
C392        C393   1.449       .  A
C393        C394   1.423       .  A
C393        C396   1.452       .  S
C394        C397   1.453       .  S
C395        N402   1.157       .  T
C396        N401   1.157       .  T
C397        N399   1.158       .  T
C398        N400   1.158       .  T
C403        C404   1.404       .  A
C403        C408   1.409       .  A
C404        C405   1.412       .  A
C404        C409   1.456       .  S
C405        C406   1.448       .  A
C405        C412   1.452       .  S
C406        C407   1.446       .  A
C407        C408   1.420       .  A
C407        C410   1.451       .  S
C408        C411   1.455       .  S
C409        N416   1.158       .  T
C410        N415   1.157       .  T
C411        N413   1.158       .  T
C412        N414   1.158       .  T
C417        C418   1.397       .  A
C417        C422   1.394       .  A
C418        C419   1.415       .  A
C418        C423   1.459       .  S
C419        C420   1.455       .  A
C419        C426   1.450       .  S
C420        C421   1.451       .  A
C421        C422   1.417       .  A
C421        C424   1.449       .  S
C422        C425   1.456       .  S
C423        N430   1.158       .  T
C424        N429   1.157       .  T
C425        N427   1.157       .  T
C426        N428   1.158       .  T
C431        C432   1.450       .  A
C431        C436   1.449       .  A
C432        C433   1.418       .  A
C432        C437   1.450       .  S
C433        C434   1.399       .  A
C433        C440   1.454       .  S
C434        C435   1.399       .  A
C435        C436   1.414       .  A
C435        C438   1.456       .  S
C436        C439   1.450       .  S
C437        N444   1.157       .  T
C438        N443   1.157       .  T
C439        N441   1.158       .  T
C440        N442   1.157       .  T
C445        C446   1.414       .  A
C445        C450   1.418       .  A
C446        C447   1.415       .  A
C446        C451   1.452       .  S
C447        C448   1.443       .  A
C447        C454   1.452       .  S
C448        C449   1.441       .  A
C449        C450   1.421       .  A
C449        C452   1.452       .  S
C450        C453   1.455       .  S
C451        N458   1.157       .  T
C452        N457   1.157       .  T
C453        N455   1.158       .  T
C454        N456   1.158       .  T
C459        C460   1.398       .  A
C459        C464   1.393       .  A
C460        C461   1.416       .  A
C460        C465   1.457       .  S
C461        C462   1.452       .  A
C461        C468   1.450       .  S
C462        C463   1.451       .  A
C463        C464   1.412       .  A
C463        C466   1.449       .  S
C464        C467   1.456       .  S
C465        N472   1.157       .  T
C466        N471   1.157       .  T
C467        N469   1.157       .  T
C468        N470   1.158       .  T
C473        C474   1.452       .  A
C473        C478   1.446       .  A
C474        C475   1.420       .  A
C474        C479   1.448       .  S
C475        C476   1.399       .  A
C475        C482   1.454       .  S
C476        C477   1.398       .  A
C477        C478   1.409       .  A
C477        C480   1.452       .  S
C478        C481   1.450       .  S
C479        N486   1.157       .  T
C480        N485   1.157       .  T
C481        N483   1.158       .  T
C482        N484   1.157       .  T
C487        C488   1.446       .  A
C487        C492   1.451       .  A
C488        C489   1.418       .  A
C488        C493   1.450       .  S
C489        C490   1.407       .  A
C489        C496   1.456       .  S
C490        C491   1.405       .  A
C491        C492   1.418       .  A
C491        C494   1.456       .  S
C492        C495   1.452       .  S
C493        N500   1.157       .  T
C494        N499   1.158       .  T
C495        N497   1.158       .  T
C496        N498   1.158       .  T
C501        C502   1.455       .  A
C501        C506   1.452       .  A
C502        C503   1.419       .  A
C502        C507   1.449       .  S
C503        C504   1.395       .  A
C503        C510   1.456       .  S
C504        C505   1.398       .  A
C505        C506   1.418       .  A
C505        C508   1.455       .  S
C506        C509   1.449       .  S
C507        N514   1.157       .  T
C508        N513   1.157       .  T
C509        N511   1.158       .  T
C510        N512   1.157       .  T
C515        C516   1.394       .  A
C515        C520   1.398       .  A
C516        C517   1.417       .  A
C516        C521   1.456       .  S
C517        C518   1.452       .  A
C517        C524   1.448       .  S
C518        C519   1.453       .  A
C519        C520   1.417       .  A
C519        C522   1.451       .  S
C520        C523   1.457       .  S
C521        N528   1.157       .  T
C522        N527   1.158       .  T
C523        N525   1.158       .  T
C524        N526   1.157       .  T
C529        C530   1.400       .  A
C529        C534   1.404       .  A
C530        C531   1.411       .  A
C530        C535   1.452       .  S
C531        C532   1.446       .  A
C531        C538   1.450       .  S
C532        C533   1.448       .  A
C533        C534   1.415       .  A
C533        C536   1.451       .  S
C534        C537   1.454       .  S
C535        N542   1.157       .  T
C536        N541   1.157       .  T
C537        N539   1.157       .  T
C538        N540   1.158       .  T
C543        C544   1.403       .  A
C543        C548   1.408       .  A
C544        C545   1.418       .  A
C544        C549   1.458       .  S
C545        C546   1.453       .  A
C545        C552   1.453       .  S
C546        C547   1.443       .  A
C547        C548   1.415       .  A
C547        C550   1.452       .  S
C548        C551   1.457       .  S
C549        N556   1.158       .  T
C550        N555   1.157       .  T
C551        N553   1.158       .  T
C552        N554   1.158       .  T
C557        C558   1.403       .  A
C557        C562   1.406       .  A
C558        C559   1.414       .  A
C558        C563   1.456       .  S
C559        C560   1.448       .  A
C559        C566   1.449       .  S
C560        C561   1.448       .  A
C561        C562   1.418       .  A
C561        C564   1.451       .  S
C562        C565   1.457       .  S
C563        N570   1.158       .  T
C564        N569   1.158       .  T
C565        N567   1.157       .  T
C566        N568   1.157       .  T
C571        C572   1.410       .  A
C571        C576   1.403       .  A
C572        C573   1.416       .  A
C572        C577   1.455       .  S
C573        C574   1.442       .  A
C573        C580   1.452       .  S
C574        C575   1.452       .  A
C575        C576   1.415       .  A
C575        C578   1.453       .  S
C576        C579   1.459       .  S
C577        N584   1.158       .  T
C578        N583   1.158       .  T
C579        N581   1.158       .  T
C580        N582   1.157       .  T
C585        C586   1.407       .  A
C585        C590   1.403       .  A
C586        C587   1.416       .  A
C586        C591   1.455       .  S
C587        C588   1.445       .  A
C587        C594   1.453       .  S
C588        C589   1.453       .  A
C589        C590   1.416       .  A
C589        C592   1.452       .  S
C590        C593   1.460       .  S
C591        N598   1.158       .  T
C592        N597   1.158       .  T
C593        N595   1.157       .  T
C594        N596   1.157       .  T
C599        C600   1.403       .  A
C599        C604   1.405       .  A
C600        C601   1.421       .  A
C600        C605   1.457       .  S
C601        C602   1.451       .  A
C601        C608   1.450       .  S
C602        C603   1.448       .  A
C603        C604   1.416       .  A
C603        C606   1.452       .  S
C604        C607   1.456       .  S
C605        N612   1.157       .  T
C606        N611   1.157       .  T
C607        N609   1.158       .  T
C608        N610   1.158       .  T
C613        C614   1.404       .  A
C613        C618   1.408       .  A
C614        C615   1.416       .  A
C614        C619   1.459       .  S
C615        C616   1.452       .  A
C615        C622   1.453       .  S
C616        C617   1.443       .  A
C617        C618   1.420       .  A
C617        C620   1.451       .  S
C618        C621   1.454       .  S
C619        N626   1.157       .  T
C620        N625   1.157       .  T
C621        N623   1.158       .  T
C622        N624   1.158       .  T
C627        C628   1.402       .  A
C627        C632   1.404       .  A
C628        C629   1.413       .  A
C628        C633   1.456       .  S
C629        C630   1.447       .  A
C629        C636   1.450       .  S
C630        C631   1.449       .  A
C631        C632   1.418       .  A
C631        C634   1.450       .  S
C632        C635   1.456       .  S
C633        N640   1.158       .  T
C634        N639   1.158       .  T
C635        N637   1.158       .  T
C636        N638   1.157       .  T
C641        C642   1.395       .  A
C641        C646   1.399       .  A
C642        C643   1.415       .  A
C642        C647   1.455       .  S
C643        C644   1.451       .  A
C643        C650   1.450       .  S
C644        C645   1.452       .  A
C645        C646   1.416       .  A
C645        C648   1.450       .  S
C646        C649   1.458       .  S
C647        N654   1.157       .  T
C648        N653   1.158       .  T
C649        N651   1.158       .  T
C650        N652   1.157       .  T
C655        C656   1.399       .  A
C655        C660   1.393       .  A
C656        C657   1.415       .  A
C656        C661   1.457       .  S
C657        C658   1.450       .  A
C657        C664   1.450       .  S
C658        C659   1.450       .  A
C659        C660   1.413       .  A
C659        C662   1.448       .  S
C660        C663   1.456       .  S
C661        N668   1.158       .  T
C662        N667   1.157       .  T
C663        N665   1.157       .  T
C664        N666   1.158       .  T
