geometry optimzed in LAMMPS
_audit_creation_date              2020-11-30 
_audit_creation_method            'lammps2cif' 
_symmetry_space_group_name_H-M    'P1' 
_symmetry_Int_Tables_number       1 
_symmetry_cell_setting            triclinic 
loop_ 
_symmetry_equiv_pos_as_xyz 
  x,y,z 
_cell_length_a                    45.10916589 
_cell_length_b                    27.688497841398743 
_cell_length_c                    43.71100584302337 
_cell_angle_alpha                 90.71027369808756 
_cell_angle_beta                  89.21687387407647 
_cell_angle_gamma                 88.53950827327404 
loop_ 
_atom_site_label 
_atom_site_type_symbol 
_atom_site_fract_x 
_atom_site_fract_y 
_atom_site_fract_z 
_atom_site_charge 
O1          O  0.47135431  0.46725045  0.42994750    -0.76300
C2          C  0.49141197  0.36426856  0.49766525     0.84800
O3          O  0.42334386  0.51414890  0.01601987    -0.77400
O4          O  0.01487401  0.45542490  0.06958472    -0.78900
O5          O  0.06390534  0.51610456  0.48562359    -0.78700
O6          O  0.00957911  0.51701253  0.43397168    -0.77300
Zn7        Zn  0.46446231  0.45876702  0.47450821     1.55700
O8          O  0.06436769  0.45744005  0.01406416    -0.78700
Cd9        Cd  0.01918312  0.53270992  0.47865303     1.59700
Cd10       Cd  0.46812415  0.52689220  0.02348522     1.59600
O11         O  0.01313635  0.60643870  0.48758744    -0.78700
O12         O  0.49165298  0.49980732  0.49637986    -1.89200
Cd13       Cd  0.02010599  0.44789674  0.02346013     1.59900
O14         O  0.47531264  0.60023780  0.01745441    -0.78700
O15         O  0.00988896  0.37790811  0.01225870    -0.77300
C16         C  0.40811532  0.50799478  0.50089461     0.85200
C17         C  0.49124529  0.48717764  0.41394627     0.84900
O18         O  0.47275430  0.38774422  0.48170532    -0.76300
C19         C  0.07837003  0.48782706  0.99821597     0.85700
O20         O  0.42122997  0.47424119  0.48538380    -0.76400
C21         C  0.00095028  0.63333527  0.00721422     0.85800
C22         C  0.00044010  0.48558643  0.08649952     0.86100
O23         O  0.47800049  0.51015785  0.06795405    -0.78800
O24         O  0.02408303  0.60930969  0.27216477    -0.76300
C25         C  0.00945118  0.49916614  0.33734707     0.84800
O26         O  0.07202043  0.47419857  0.22358185    -0.77400
O27         O  0.49331348  0.38014573  0.26123590    -0.78900
O28         O  0.43173251  0.52950653  0.24180961    -0.78700
O29         O  0.48296054  0.61463511  0.23940049    -0.77300
Zn30       Zn  0.03243150  0.53724813  0.27728508     1.55700
O31         O  0.43649840  0.45920589  0.26567773    -0.78700
Cd32       Cd  0.47480183  0.54369079  0.22877633     1.59700
Cd33       Cd  0.02736512  0.45863733  0.22364206     1.59600
O34         O  0.47608736  0.53615013  0.18220460    -0.78700
O35         O  0.00479276  0.49838188  0.25463851    -1.89200
Cd36       Cd  0.48202672  0.45158152  0.27199576     1.59900
O37         O  0.01146183  0.47583303  0.18173030    -0.78700
O38         O  0.49132715  0.46607559  0.31704090    -0.77300
C39         C  0.08716432  0.49878023  0.24223683     0.85200
C40         C  0.00293245  0.63392746  0.26051225     0.84900
O41         O  0.02712605  0.52430257  0.32164991    -0.76300
C42         C  0.42046891  0.49295421  0.25445979     0.85700
O43         O  0.07508147  0.52245910  0.26451249    -0.76400
C44         C  0.49097200  0.50770967  0.16450545     0.85800
C45         C  0.50908601  0.36072795  0.23982049     0.86100
O46         O  0.02285557  0.38469981  0.22989975    -0.78800
O47         O  0.25695530  0.62433206  0.01776782    -0.76300
C48         C  0.23467818  0.51706418  0.08362726     0.84800
O49         O  0.31097647  0.44559207  0.48187067    -0.77400
O50         O  0.22094950  0.40017929  0.02051731    -0.78900
O51         O  0.17663146  0.52911296  0.47492054    -0.78700
O52         O  0.23168604  0.60544508  0.48247410    -0.77300
Zn53       Zn  0.26634701  0.55358093  0.02692565     1.55700
O54         O  0.17180330  0.48852598  0.00891151    -0.78700
Cd55       Cd  0.22224777  0.53485661  0.47263170     1.59700
Cd56       Cd  0.26591016  0.43865252  0.47647293     1.59600
O57         O  0.23607631  0.52066334  0.42874364    -0.78700
O58         O  0.24425937  0.51064654  0.00082079    -1.89200
Cd59       Cd  0.21395192  0.47421391  0.02391935     1.59900
O60         O  0.25863937  0.44791840  0.43091068    -0.78700
O61         O  0.21573569  0.49284856  0.06915564    -0.77300
C62         C  0.32716802  0.50964170  0.00908796     0.85200
C63         C  0.24201378  0.64569753  0.99714774     0.84900
O64         O  0.25516733  0.54016122  0.07037498    -0.76300
C65         C  0.15992718  0.50436113  0.49200691     0.85700
O66         O  0.31084917  0.54177834  0.02258235    -0.76400
C67         C  0.24871898  0.48385752  0.41605816     0.85800
C68         C  0.23414524  0.35301148  0.50489121     0.86100
O69         O  0.25426253  0.36934607  0.48749586    -0.78800
O70         O  0.26399769  0.63014399  0.26224540    -0.76300
C71         C  0.25580591  0.52045825  0.33368605     0.84800
O72         O  0.32647513  0.48768357  0.23745445    -0.77400
O73         O  0.24184687  0.39803135  0.26916233    -0.78900
O74         O  0.18132402  0.52938872  0.23475558    -0.78700
O75         O  0.22770451  0.62266074  0.22860489    -0.77300
Zn76       Zn  0.27605599  0.56201117  0.27362049     1.55700
O77         O  0.18682514  0.48191642  0.27517900    -0.78700
Cd78       Cd  0.22478515  0.54790141  0.22451450     1.59700
Cd79       Cd  0.28321728  0.47224302  0.22625929     1.59600
O80         O  0.23463259  0.53044721  0.18001798    -0.78700
O81         O  0.25446988  0.51395819  0.25056837    -1.89200
Cd82       Cd  0.23208408  0.47032681  0.27738859     1.59900
O83         O  0.27715548  0.48682214  0.18058973    -0.78700
O84         O  0.24302025  0.48529014  0.32096406    -0.77300
C85         C  0.33704787  0.52251998  0.25281360     0.85200
C86         C  0.24480379  0.64858351  0.24448745     0.84900
O87         O  0.26798934  0.55378697  0.31859285    -0.76300
C88         C  0.17049049  0.50473763  0.25647880     0.85700
O89         O  0.32040890  0.55406415  0.26644168    -0.76400
C90         C  0.25636053  0.50863811  0.16642729     0.85800
C91         C  0.26040907  0.37608428  0.25142466     0.86100
O92         O  0.27758692  0.39856248  0.23345213    -0.78800
N93         N  0.49718457  0.93990379  0.03037303    -0.34400
N94         N  0.50351156  0.04194079  0.02575331    -0.55000
N95         N  0.49846692  0.04922673  0.45812652    -0.34400
N96         N  0.50050393  0.94624228  0.46090063    -0.55000
C97         C  0.50420301  0.95070692  0.05984656     0.29200
C98         C  0.50270019  0.89205748  0.02579554     0.29200
C99         C  0.50504198  0.09595226  0.46341259     0.29200
C100        C  0.50568506  0.03866679  0.42840844     0.29200
C101        C  0.49854516  0.03963847  0.05640434     0.37800
C102        C  0.50002158  0.08894031  0.01812667     0.37800
C103        C  0.49586690  0.89937564  0.46744090     0.37800
C104        C  0.49740118  0.95057458  0.43017623     0.37800
C105        C  0.51426177  0.90904884  0.07401986    -0.19700
C106        C  0.51302224  0.87204687  0.05272010    -0.19700
C107        C  0.51629127  0.11557664  0.43674289    -0.19700
C108        C  0.51703262  0.07933996  0.41483315    -0.19700
C109        C  0.49208800  0.08542648  0.06817595    -0.20700
C110        C  0.49288778  0.11653963  0.04401332    -0.20700
C111        C  0.48985513  0.87394231  0.44077331    -0.20700
C112        C  0.49094168  0.90618583  0.41729387    -0.20700
C113        C  0.50152009  0.99719987  0.07410737    -0.16100
C114        C  0.50003986  0.87777297  0.49633314    -0.16100
C115        C  0.50200404  0.99335746  0.41335950    -0.16100
C116        C  0.49963038  0.12211546  0.49108546    -0.16100
H117        H  0.52222214  0.90563890  0.09710715     0.16800
H118        H  0.51935662  0.83466365  0.05654658     0.16800
H119        H  0.52357608  0.15212928  0.43350015     0.16800
H120        H  0.52546938  0.08254967  0.39172451     0.16800
H121        H  0.48751712  0.09567058  0.09169933     0.15100
H122        H  0.48929345  0.15530007  0.04550230     0.15100
H123        H  0.48582602  0.83573505  0.43830144     0.15100
H124        H  0.48774732  0.89743869  0.39345611     0.15100
H125        H  0.48655609  0.96253662  0.01493455     0.28400
H126        H  0.48693266  0.02772263  0.47329143     0.28400
N127        N  0.99767754  0.94989872  0.29099314    -0.34400
N128        N  0.99612435  0.05276115  0.28752201    -0.55000
N129        N  0.99715666  0.04598339  0.21876750    -0.34400
N130        N  0.99394174  0.94346163  0.22251176    -0.55000
C131        C  0.99096901  0.96107465  0.32073744     0.29200
C132        C  0.99088654  0.90313321  0.28627218     0.29200
C133        C  0.99127957  0.09354257  0.22406099     0.29200
C134        C  0.98876039  0.03561784  0.18963588     0.29200
C135        C  0.99950118  0.04903512  0.31827019     0.37800
C136        C  0.00148887  0.09918101  0.28034616     0.37800
C137        C  0.99918815  0.89651142  0.22943208     0.37800
C138        C  0.99673940  0.94685656  0.19160959     0.37800
C139        C  0.97961162  0.92084702  0.33484273    -0.19700
C140        C  0.97991860  0.88419866  0.31327399    -0.19700
C141        C  0.97912257  0.11380777  0.19806842    -0.19700
C142        C  0.97709962  0.07720250  0.17660921    -0.19700
C143        C  0.00651604  0.09353990  0.33062111    -0.20700
C144        C  0.00792821  0.12511935  0.30670432    -0.20700
C145        C  0.00512213  0.86998410  0.20281594    -0.20700
C146        C  0.00348450  0.90170538  0.17896720    -0.20700
C147        C  0.99525734  0.00642663  0.33545701    -0.16100
C148        C  0.99605680  0.87617312  0.25888985    -0.16100
C149        C  0.99191392  0.98973508  0.17458251    -0.16100
C150        C  0.99817308  0.11979644  0.25098816    -0.16100
H151        H  0.97150822  0.91815566  0.35812269     0.16800
H152        H  0.97258184  0.84779043  0.31697935     0.16800
H153        H  0.97201404  0.15105526  0.19503894     0.16800
H154        H  0.96763772  0.08087285  0.15418364     0.16800
H155        H  0.01016434  0.10261738  0.35434910     0.15100
H156        H  0.01255675  0.16318798  0.30865941     0.15100
H157        H  0.00960069  0.83149164  0.20068815     0.15100
H158        H  0.00679951  0.89228761  0.15507772     0.15100
H159        H  0.00912879  0.97090779  0.27546677     0.28400
H160        H  0.00913220  0.02360497  0.23330938     0.28400
N161        N  0.24353167  0.93689795  0.46714497    -0.34400
N162        N  0.23629616  0.95619304  0.03358363    -0.55000
N163        N  0.24024752  0.05883529  0.03836386    -0.34400
N164        N  0.23739335  0.04010828  0.46837931    -0.55000
C165        C  0.24081605  0.88925475  0.47284538     0.29200
C166        C  0.23634841  0.94414330  0.43735110     0.29200
C167        C  0.23349507  0.04890928  0.06805369     0.29200
C168        C  0.23402785  0.10631899  0.03406858     0.29200
C169        C  0.23887767  0.90863687  0.02615737     0.37800
C170        C  0.23855587  0.95952983  0.06452948     0.37800
C171        C  0.23770626  0.03407694  0.43743655     0.37800
C172        C  0.23693493  0.08826862  0.47414362     0.37800
C173        C  0.23241356  0.86572561  0.44624494    -0.19700
C174        C  0.22951714  0.90020371  0.42402320    -0.19700
C175        C  0.22307153  0.09077431  0.08266556    -0.19700
C176        C  0.22362790  0.12695630  0.06140089    -0.19700
C177        C  0.24235315  0.88177302  0.05253617    -0.20700
C178        C  0.24215140  0.91383383  0.07668015    -0.20700
C179        C  0.23682389  0.07876786  0.42357365    -0.20700
C180        C  0.23651758  0.11291363  0.44666348    -0.20700
C181        C  0.23615671  0.88824309  0.99639588    -0.16100
C182        C  0.23638805  0.98893348  0.42160578    -0.16100
C183        C  0.23868524  0.13232836  0.00672534    -0.16100
C184        C  0.23609124  0.00296062  0.08216981    -0.16100
H185        H  0.22852193  0.82757294  0.44315246     0.16800
H186        H  0.22274348  0.89343882  0.40081495     0.16800
H187        H  0.21506710  0.09476027  0.10599209     0.16800
H188        H  0.21671738  0.16421514  0.06553786     0.16800
H189        H  0.24444961  0.84289223  0.05433766     0.15100
H190        H  0.24419926  0.90422966  0.10045408     0.15100
H191        H  0.23571988  0.08625329  0.39939903     0.15100
H192        H  0.23535273  0.15161925  0.44350493     0.15100
H193        H  0.25245285  0.96168354  0.48217475     0.28400
H194        H  0.25101232  0.03599477  0.02252564     0.28400
N195        N  0.24140164  0.96517569  0.21520103    -0.34400
N196        N  0.24809681  0.06735127  0.21990398    -0.55000
N197        N  0.24748155  0.06169475  0.28832595    -0.34400
N198        N  0.24342827  0.95905118  0.28391499    -0.54600
C199        C  0.24812080  0.97515627  0.18549827     0.29200
C200        C  0.24713377  0.91748012  0.21933415     0.29200
C201        C  0.25589712  0.10778356  0.28399139     0.29200
C202        C  0.25332761  0.05015225  0.31788802     0.29200
C203        C  0.24338160  0.06432885  0.18931621     0.37800
C204        C  0.24631215  0.11483159  0.22758950     0.37800
C205        C  0.23886258  0.91226735  0.27638947     0.37800
C206        C  0.24134407  0.96292042  0.31494776     0.37800
C207        C  0.25821190  0.93322280  0.17075102    -0.19700
C208        C  0.25733148  0.89686234  0.19190988    -0.19700
C209        C  0.26666594  0.12615681  0.31120542    -0.19700
C210        C  0.26504651  0.09004464  0.33248150    -0.19700
C211        C  0.23859159  0.11008661  0.17764157    -0.20700
C212        C  0.24042662  0.14195907  0.20176511    -0.20700
C213        C  0.23392309  0.88622799  0.30280820    -0.20700
C214        C  0.23576575  0.91803727  0.32705086    -0.20700
C215        C  0.24540460  0.02116492  0.17147231    -0.16100
C216        C  0.24221930  0.89134373  0.24662926    -0.16100
C217        C  0.24752834  0.00532188  0.33235237    -0.16100
C218        C  0.25265879  0.13476316  0.25673893    -0.16100
H219        H  0.26609497  0.92926693  0.14737910     0.16800
H220        H  0.26388986  0.85948390  0.18764518     0.16800
H221        H  0.27477156  0.16206211  0.31539980     0.16800
H222        H  0.27180789  0.09323866  0.35603651     0.16800
H223        H  0.23462253  0.11978553  0.15415310     0.15100
H224        H  0.23822730  0.18087215  0.20028363     0.15100
H225        H  0.23049851  0.84781104  0.30458932     0.15100
H226        H  0.23427903  0.90839667  0.35080055     0.15100
H227        H  0.23087610  0.98822863  0.23111398     0.28400
H228        H  0.23582365  0.04142317  0.27262873     0.28400
C229        C  0.23147590  0.98838226  0.38733733    -0.14200
C230        C  0.25215633  0.00242858  0.36666765    -0.29400
H231        H  0.21039351  0.97569307  0.37916027     0.14800
H232        H  0.27296255  0.01529758  0.37546342     0.15400
C233        C  0.23308933  0.99869811  0.11664300    -0.14200
C234        C  0.24807196  0.02581832  0.13701359    -0.29400
H235        H  0.21890826  0.97081994  0.12545789     0.14800
H236        H  0.26219521  0.05381170  0.12823363     0.15400
C237        C  0.50572952  0.98824101  0.37896171    -0.14200
C238        C  0.99274482  0.01123118  0.36999401    -0.29400
H239        H  0.01915653  0.95022418  0.38055467     0.14800
H240        H  0.47958878  0.04880873  0.36674823     0.15400
C241        C  0.50502715  0.00351802  0.10837569    -0.14200
C242        C  0.98780645  0.98437910  0.14021892    -0.29400
H243        H  0.01103483  0.04562082  0.12653835     0.14800
H244        H  0.47663014  0.94865914  0.12207933     0.15400
C245        C  0.26192661  0.32409880  0.25216117    -0.16300
C246        C  0.26163861  0.28064128  0.25432731     0.07800
C247        C  0.25969459  0.22991655  0.25716804     0.09600
C248        C  0.25691843  0.18666423  0.25829450    -0.17200
C249        C  0.24255528  0.70042889  0.24244132    -0.16300
C250        C  0.24176836  0.74407921  0.24189848     0.07800
C251        C  0.24166731  0.79525314  0.24255621     0.09600
C252        C  0.24190324  0.83887545  0.24405798    -0.17200
C253        C  0.23802353  0.18466507  0.00906210    -0.16300
C254        C  0.23057808  0.20690614  0.50570852     0.07800
C255        C  0.23030029  0.25798538  0.50666385     0.09600
C256        C  0.23131085  0.30150977  0.50661719    -0.17200
C257        C  0.24053424  0.69765414  0.99673232    -0.16300
C258        C  0.23870666  0.74117882  0.99550388     0.07800
C259        C  0.23668002  0.79218370  0.99410252     0.09600
C260        C  0.23574367  0.83582336  0.99408056    -0.17200
C261        C  0.25177385  0.48230969  0.38298798    -0.14200
C262        C  0.25579964  0.52257450  0.36699794    -0.29400
H263        H  0.25124063  0.44722148  0.37158570     0.14800
H264        H  0.25870402  0.55713400  0.37849919     0.15400
C265        C  0.23313340  0.51727888  0.11684381    -0.14200
C266        C  0.25766434  0.50931891  0.13306183    -0.29400
H267        H  0.21146767  0.52025610  0.12799718     0.14800
H268        H  0.27884752  0.50193486  0.12154205     0.15400
C269        C  0.00131567  0.17174983  0.24853195    -0.16300
C270        C  0.00474706  0.21485414  0.24765258     0.07800
C271        C  0.50948025  0.26518771  0.23512191     0.09600
C272        C  0.51021735  0.30876090  0.23703454    -0.17200
C273        C  0.99756440  0.82387188  0.26113844    -0.16300
C274        C  0.99942722  0.78038154  0.26250838     0.07800
C275        C  0.00165825  0.72937850  0.26315443     0.09600
C276        C  0.00292588  0.68577886  0.26264595    -0.17200
C277        C  0.38794088  0.48849311  0.25515756    -0.14200
C278        C  0.36945998  0.52728288  0.25445149    -0.29400
H279        H  0.37895402  0.45250315  0.25634027     0.14800
H280        H  0.37827404  0.56339753  0.25581244     0.15400
C281        C  0.11952226  0.50036372  0.23739477    -0.14200
C282        C  0.13812621  0.50323368  0.26096067    -0.29400
H283        H  0.12831641  0.49691875  0.21417561     0.14800
H284        H  0.12947380  0.50193247  0.28425964     0.15400
C285        C  0.49859691  0.17451960  0.48979975    -0.16300
C286        C  0.49683464  0.21809137  0.49055429     0.07800
C287        C  0.49436777  0.26899440  0.49294371     0.09600
C288        C  0.49256213  0.31243675  0.49535245    -0.17200
C289        C  0.00327495  0.68510600  0.00884236    -0.16300
C290        C  0.49277107  0.71862187  0.00138595     0.07800
C291        C  0.49431210  0.76964796  0.00145728     0.09600
C292        C  0.49570961  0.81315591  0.00070555    -0.17200
C293        C  0.35978346  0.51220442  0.01196806    -0.14200
C294        C  0.37547445  0.50959510  0.50417667    -0.29400
H295        H  0.36857937  0.54024732  0.02661376     0.14800
H296        H  0.36530735  0.54030334  0.51640784     0.15400
C297        C  0.12750665  0.50901586  0.48831019    -0.14200
C298        C  0.11100638  0.48523663  0.99894237    -0.29400
H299        H  0.11902524  0.54055995  0.96722228     0.14800
H300        H  0.11830287  0.45071546  0.51699322     0.15400
C301        C  0.49054883  0.47994901  0.38080809    -0.14200
C302        C  0.01030321  0.50422167  0.37058463    -0.29400
H303        H  0.47231072  0.46008047  0.37121950     0.14800
H304        H  0.02838420  0.52408630  0.38048497     0.15400
C305        C  0.00311584  0.48071938  0.11945397    -0.14200
C306        C  0.48526638  0.50939198  0.13175870    -0.29400
H307        H  0.01774890  0.45212793  0.12778384     0.14800
H308        H  0.47142804  0.53866136  0.12300455     0.15400
O309        O  0.47783329  0.45968978  0.92772677    -0.76300
C310        C  0.49920518  0.34977099  0.99007068     0.84800
O311        O  0.42248290  0.54079166  0.51430996    -0.77400
O312        O  0.01293045  0.45137959  0.57065037    -0.78900
O313        O  0.06500010  0.52032161  0.98284761    -0.78700
O314        O  0.01078266  0.51969728  0.93261808    -0.77300
Zn315      Zn  0.46995270  0.44496839  0.97118602     1.55700
O316        O  0.06206562  0.45262925  0.51628531    -0.78700
Cd317      Cd  0.02022988  0.53635252  0.97692597     1.59700
Cd318      Cd  0.46732838  0.54880649  0.52012949     1.59600
O319        O  0.01431290  0.61005538  0.98557171    -0.78700
O320        O  0.49451940  0.48575501  0.99609854    -1.89200
Cd321      Cd  0.01794171  0.44383899  0.52487028     1.59900
O322        O  0.47832398  0.61836344  0.50960297    -0.78700
O323        O  0.00813657  0.37399912  0.51381442    -0.77300
C324        C  0.41112559  0.48457863  0.99776690     0.85200
C325        C  0.49586082  0.48585314  0.91327037     0.84900
O326        O  0.47946414  0.37352823  0.97567602    -0.76300
C327        C  0.07663681  0.48303739  0.50113200     0.85700
O328        O  0.42641150  0.45660471  0.98003388    -0.76400
C329        C  0.99876779  0.62993328  0.50848045     0.85800
C330        C  0.99962177  0.48258283  0.58767493     0.86100
O331        O  0.47416299  0.54029376  0.56574564    -0.78800
O332        O  0.03443647  0.60625369  0.77238888    -0.76300
C333        C  0.01591330  0.49588306  0.83697441     0.84800
O334        O  0.08037379  0.47362231  0.72229018    -0.77400
O335        O  0.50094776  0.37734313  0.76521534    -0.78900
O336        O  0.44078984  0.51884610  0.73514418    -0.78700
O337        O  0.48974429  0.60615357  0.73028684    -0.77300
Zn338      Zn  0.04145245  0.53356263  0.77770207     1.55700
O339        O  0.44532542  0.45685304  0.76681714    -0.78700
Cd340      Cd  0.48440203  0.53303797  0.72342132     1.59700
Cd341      Cd  0.03572117  0.45790037  0.72249700     1.59600
O342        O  0.49033050  0.51679920  0.67782608    -0.78700
O343        O  0.01367718  0.49609798  0.75450368    -1.89200
Cd344      Cd  0.49063409  0.44975876  0.77316049     1.59900
O345        O  0.01834836  0.47654820  0.68141805    -0.78700
O346        O  0.49923681  0.46848358  0.81735668    -0.77300
C347        C  0.09587785  0.49516666  0.74212472     0.85200
C348        C  0.01329387  0.63177380  0.76140784     0.84900
O349        O  0.03434077  0.52070647  0.82195472    -0.76300
C350        C  0.42942378  0.48651739  0.75177637     0.85700
O351        O  0.08411594  0.51668048  0.76544439    -0.76400
C352        C  0.50792308  0.48778692  0.66318777     0.85800
C353        C  0.51827825  0.35554039  0.74611884     0.86100
O354        O  0.03172614  0.38354061  0.72779194    -0.78800
O355        O  0.26443079  0.59786696  0.51988372    -0.76300
C356        C  0.24048361  0.49180502  0.58368989     0.84800
O357        O  0.31605581  0.47585922  0.99319905    -0.77400
O358        O  0.21653353  0.38059605  0.52052831    -0.78900
O359        O  0.17742214  0.53808928  0.96966785    -0.78700
O360        O  0.22820546  0.62260404  0.97670137    -0.77300
Zn361      Zn  0.27019238  0.52531748  0.52518603     1.55700
O362        O  0.17036380  0.47588351  0.51213803    -0.78700
Cd363      Cd  0.22296254  0.54954058  0.96943864     1.59700
Cd364      Cd  0.27259679  0.46215072  0.98186562     1.59600
O365        O  0.24040214  0.53100420  0.92721139    -0.78700
O366        O  0.24306642  0.48909989  0.50033056    -1.89200
Cd367      Cd  0.21269771  0.45551038  0.52503880     1.59900
O368        O  0.26986404  0.46624912  0.93540985    -0.78700
O369        O  0.21863664  0.47304156  0.57025545    -0.77300
C370        C  0.32572649  0.47638085  0.49672169     0.85200
C371        C  0.24886315  0.62374896  0.50198078     0.84900
O372        O  0.26218926  0.51002809  0.56924960    -0.76300
C373        C  0.16104850  0.51351075  0.98728109     0.85700
O374        O  0.31303127  0.50853868  0.51386741    -0.76400
C375        C  0.25745971  0.49642525  0.91771945     0.85800
C376        C  0.24136787  0.37408800  0.00788878     0.86100
O377        O  0.26290226  0.39196885  0.99317798    -0.78800
O378        O  0.27237052  0.62258684  0.75921851    -0.76300
C379        C  0.26486360  0.52077861  0.83354202     0.84800
O380        O  0.33520219  0.47897088  0.73747378    -0.77400
O381        O  0.25081534  0.39154532  0.77305690    -0.78900
O382        O  0.19030001  0.51933413  0.73427664    -0.78700
O383        O  0.23570476  0.61303786  0.72626287    -0.77300
Zn384      Zn  0.28515844  0.55569187  0.77170291     1.55700
O385        O  0.19577371  0.47528750  0.77624826    -0.78700
Cd386      Cd  0.23357753  0.53786543  0.72348221     1.59700
Cd387      Cd  0.29184461  0.46258598  0.72726805     1.59600
O388        O  0.24325927  0.51685148  0.67933565    -0.78700
O389        O  0.26325437  0.50593725  0.75058470    -1.89200
Cd390      Cd  0.24116335  0.46459836  0.77936486     1.59900
O391        O  0.28554854  0.47282237  0.68109711    -0.78700
O392        O  0.25191362  0.48421996  0.82263792    -0.77300
C393        C  0.34594953  0.51531579  0.75119679     0.85200
C394        C  0.25266398  0.63993020  0.74167436     0.84900
O395        O  0.27736500  0.55172975  0.81680666    -0.76300
C396        C  0.17943593  0.49626283  0.75669369     0.85700
O397        O  0.32945618  0.54793804  0.76396695    -0.76400
C398        C  0.26466461  0.49327794  0.66632550     0.85800
C399        C  0.26876331  0.36843122  0.75518146     0.86100
O400        O  0.28575881  0.38974181  0.73644971    -0.78800
N401        N  0.49804023  0.95072870  0.52953171    -0.34400
N402        N  0.50062978  0.05372300  0.52669266    -0.55000
N403        N  0.50269664  0.03423088  0.95745063    -0.34400
N404        N  0.50052212  0.93183778  0.96179244    -0.55000
C405        C  0.50506502  0.96068678  0.55910740     0.29200
C406        C  0.50466095  0.90341531  0.52408544     0.29200
C407        C  0.51164057  0.07990544  0.96215344     0.29200
C408        C  0.51011849  0.02157392  0.92814387     0.29200
C409        C  0.49733973  0.04964262  0.55750102     0.37800
C410        C  0.49581788  0.10094159  0.52021000     0.37800
C411        C  0.49383317  0.88603535  0.96922075     0.37800
C412        C  0.49732526  0.93541578  0.93101459     0.37800
C413        C  0.51615080  0.91897922  0.57245449    -0.19700
C414        C  0.51555156  0.88280595  0.55056937    -0.19700
C415        C  0.52491294  0.09659549  0.93562747    -0.19700
C416        C  0.52426248  0.05960548  0.91431406    -0.19700
C417        C  0.49071334  0.09453814  0.57051056    -0.20700
C418        C  0.48961246  0.12686162  0.54701495    -0.20700
C419        C  0.48646687  0.86042552  0.94301599    -0.20700
C420        C  0.48869862  0.89159103  0.91892206    -0.20700
C421        C  0.50166291  0.00642137  0.57423076    -0.16100
C422        C  0.49713250  0.86544314  0.99859203    -0.16100
C423        C  0.50376558  0.97693503  0.91357420    -0.16100
C424        C  0.50597282  0.10812027  0.98886669    -0.16100
H425        H  0.52454564  0.91509580  0.59532635     0.16800
H426        H  0.52283908  0.84566281  0.55367155     0.16800
H427        H  0.53419579  0.13177864  0.93204205     0.16800
H428        H  0.53346964  0.06055310  0.89138169     0.16800
H429        H  0.48720555  0.10341282  0.59442193     0.15100
H430        H  0.48535604  0.16535976  0.54953686     0.15100
H431        H  0.48066697  0.82280832  0.94129957     0.15100
H432        H  0.48475215  0.88263295  0.89521695     0.15100
H433        H  0.48687075  0.97338877  0.51453119     0.28400
H434        H  0.48929704  0.01529371  0.97242608     0.28400
N435        N  0.00437486  0.94877374  0.79049578    -0.34400
N436        N  0.00243423  0.05186412  0.78622195    -0.55000
N437        N  0.00683648  0.04378431  0.71805171    -0.34400
N438        N  0.00410508  0.94101319  0.72231744    -0.55000
C439        C  0.99542400  0.96052998  0.81956842     0.29200
C440        C  0.99861712  0.90157267  0.78573700     0.29200
C441        C  0.00082241  0.09141865  0.72275607     0.29200
C442        C  0.99887936  0.03271165  0.68893299     0.29200
C443        C  0.00429849  0.04844079  0.81711656     0.37800
C444        C  0.00909644  0.09782801  0.77911606     0.37800
C445        C  0.01002570  0.89440706  0.72958142     0.37800
C446        C  0.00784259  0.94426071  0.69153323     0.37800
C447        C  0.98357990  0.92021812  0.83314874    -0.19700
C448        C  0.98601960  0.88292147  0.81203824    -0.19700
C449        C  0.98901691  0.11105572  0.69642638    -0.19700
C450        C  0.98724398  0.07385692  0.67536378    -0.19700
C451        C  0.01168067  0.09268739  0.82959785    -0.20700
C452        C  0.01492895  0.12377620  0.80561362    -0.20700
C453        C  0.01743490  0.86795822  0.70328314    -0.20700
C454        C  0.01588071  0.89938671  0.67925557    -0.20700
C455        C  0.99849558  0.00632997  0.83424730    -0.16100
C456        C  0.00592809  0.87423449  0.75894532    -0.16100
C457        C  0.00269293  0.98670683  0.67427292    -0.16100
C458        C  0.00723143  0.11810053  0.74956867    -0.16100
H459        H  0.97387703  0.91782725  0.85579619     0.16800
H460        H  0.97894584  0.84631213  0.81552810     0.16800
H461        H  0.98187382  0.14818355  0.69297259     0.16800
H462        H  0.97791770  0.07676041  0.65285828     0.16800
H463        H  0.01449202  0.10184565  0.85344593     0.15100
H464        H  0.02029695  0.16155468  0.80757898     0.15100
H465        H  0.02269899  0.82966693  0.70145414     0.15100
H466        H  0.02008698  0.89001495  0.65549721     0.15100
H467        H  0.01660675  0.96983468  0.77564911     0.28400
H468        H  0.01865124  0.02181548  0.73297959     0.28400
N469        N  0.24108002  0.96140028  0.96489860    -0.34400
N470        N  0.24532028  0.93669226  0.53577596    -0.55000
N471        N  0.24307188  0.04026042  0.53708844    -0.34400
N472        N  0.23985079  0.06444852  0.96956656    -0.55000
C473        C  0.23357565  0.91484528  0.96894889     0.29200
C474        C  0.23623510  0.97231148  0.93503995     0.29200
C475        C  0.23971320  0.03204972  0.56760917     0.29200
C476        C  0.23473046  0.08677442  0.53208122     0.29200
C477        C  0.24989020  0.88900403  0.52974311     0.37800
C478        C  0.24878990  0.94295457  0.56638186     0.37800
C479        C  0.24394536  0.06066133  0.93875147     0.37800
C480        C  0.24326475  0.11149707  0.97715889     0.37800
C481        C  0.22421234  0.89573434  0.94132735    -0.19700
C482        C  0.22554407  0.93203572  0.92014649    -0.19700
C483        C  0.22947971  0.07419158  0.58204142    -0.19700
C484        C  0.22660419  0.10865407  0.55981977    -0.19700
C485        C  0.25600011  0.86491488  0.55668724    -0.20700
C486        C  0.25521064  0.89887793  0.57974759    -0.20700
C487        C  0.24974952  0.10562770  0.92682693    -0.20700
C488        C  0.24930682  0.13768007  0.95101761    -0.20700
C489        C  0.24665833  0.86575677  0.50091634    -0.16100
C490        C  0.24095749  0.01773807  0.92099862    -0.16100
C491        C  0.23484187  0.11089292  0.50353260    -0.16100
C492        C  0.24503107  0.98741291  0.58274555    -0.16100
H493        H  0.21665385  0.85953146  0.93698267     0.16800
H494        H  0.21852553  0.92933900  0.89669553     0.16800
H495        H  0.22383487  0.07950274  0.60597455     0.16800
H496        H  0.21878162  0.14554062  0.56365121     0.16800
H497        H  0.26012526  0.82658100  0.55960657     0.15100
H498        H  0.25869075  0.89151318  0.60363696     0.15100
H499        H  0.25360322  0.11475788  0.90315700     0.15100
H500        H  0.25260591  0.17615270  0.94940904     0.15100
H501        H  0.25151823  0.98260369  0.98107513     0.28400
H502        H  0.25277485  0.01712029  0.52078255     0.28400
N503        N  0.25163949  0.95561489  0.71511533    -0.34400
N504        N  0.25821617  0.05807638  0.71923688    -0.55000
N505        N  0.25427042  0.05386682  0.78770694    -0.34400
N506        N  0.25217155  0.95050215  0.78342646    -0.54600
C507        C  0.25936358  0.96508603  0.68564547     0.29200
C508        C  0.25714644  0.90796646  0.71962968     0.29200
C509        C  0.26303568  0.09977499  0.78343703     0.29200
C510        C  0.25889371  0.04282165  0.81757885     0.29200
C511        C  0.25468375  0.05434999  0.68846928     0.37800
C512        C  0.25635024  0.10576225  0.72645487     0.37800
C513        C  0.24703751  0.90378157  0.77614168     0.37800
C514        C  0.24854331  0.95504416  0.81424882     0.37800
C515        C  0.27011113  0.92301938  0.67154029    -0.19700
C516        C  0.26838177  0.88692657  0.69277419    -0.19700
C517        C  0.27294932  0.11838352  0.81098966    -0.19700
C518        C  0.27053973  0.08248368  0.83236658    -0.19700
C519        C  0.25072152  0.09988515  0.67618394    -0.20700
C520        C  0.25182272  0.13232459  0.70011670    -0.20700
C521        C  0.24034454  0.87853552  0.80243962    -0.20700
C522        C  0.24137936  0.91080946  0.82645067    -0.20700
C523        C  0.25668559  0.01063138  0.67113211    -0.16100
C524        C  0.25093164  0.88226645  0.74670085    -0.16100
C525        C  0.25306069  0.99783582  0.83175343    -0.16100
C526        C  0.26102839  0.12629876  0.75586535    -0.16100
H527        H  0.27902715  0.91891644  0.64858001     0.16800
H528        H  0.27507436  0.84948977  0.68897414     0.16800
H529        H  0.28134813  0.15408363  0.81523735     0.16800
H530        H  0.27724365  0.08513130  0.85595993     0.16800
H531        H  0.24769084  0.10906624  0.65244409     0.15100
H532        H  0.24988715  0.17121126  0.69822394     0.15100
H533        H  0.23583850  0.84046464  0.80427483     0.15100
H534        H  0.23767781  0.90218334  0.85018665     0.15100
H535        H  0.24042143  0.97888226  0.73041278     0.28400
H536        H  0.24331010  0.03318431  0.77165165     0.28400
C537        C  0.23967125  0.02258648  0.88646933    -0.14200
C538        C  0.25462635  0.99312910  0.86624296    -0.29400
H539        H  0.22674944  0.05271947  0.87748413     0.14800
H540        H  0.26755507  0.96293071  0.87513090     0.15400
C541        C  0.24330176  0.98514081  0.61733500    -0.14200
C542        C  0.25861595  0.01374330  0.63656860    -0.29400
H543        H  0.22967501  0.95738261  0.62720799     0.14800
H544        H  0.27221124  0.04158739  0.62675902     0.15400
C545        C  0.50640954  0.97154900  0.87910539    -0.14200
C546        C  0.99353016  0.01218617  0.86850142    -0.29400
H547        H  0.01887946  0.95143217  0.88158845     0.14800
H548        H  0.48302953  0.03556047  0.86849556     0.15400
C549        C  0.50557007  0.01103736  0.60856299    -0.14200
C550        C  0.99896932  0.98093013  0.64001108    -0.29400
H551        H  0.02346472  0.04093181  0.62664664     0.14800
H552        H  0.47804091  0.95442334  0.62112974     0.15400
C553        C  0.26950991  0.31639716  0.75607044    -0.16300
C554        C  0.26888479  0.27280369  0.75699430     0.07800
C555        C  0.26698720  0.22181030  0.75779280     0.09600
C556        C  0.26460306  0.17839412  0.75764161    -0.17200
C557        C  0.24955841  0.69166936  0.73972238    -0.16300
C558        C  0.24856216  0.73532328  0.74010894     0.07800
C559        C  0.24877533  0.78640352  0.74201994     0.09600
C560        C  0.24964415  0.82990587  0.74416488    -0.17200
C561        C  0.23193840  0.16330696  0.50460521    -0.16300
C562        C  0.23806421  0.22819059  0.01021889     0.07800
C563        C  0.23879829  0.27910966  0.01054237     0.09600
C564        C  0.23987123  0.32253407  0.00990190    -0.17200
C565        C  0.25063796  0.67539044  0.50342655    -0.16300
C566        C  0.25075236  0.71890276  0.50286293     0.07800
C567        C  0.24974551  0.76980713  0.50133346     0.09600
C568        C  0.24838738  0.81332184  0.50045787    -0.17200
C569        C  0.26245029  0.49002473  0.88501804    -0.14200
C570        C  0.26443700  0.52795797  0.86660744    -0.29400
H571        H  0.26442828  0.45337924  0.87584859     0.14800
H572        H  0.26493490  0.56450506  0.87593686     0.15400
C573        C  0.24020780  0.49298472  0.61707209    -0.14200
C574        C  0.26535928  0.48998139  0.63291312    -0.29400
H575        H  0.21884019  0.49477209  0.62890102     0.14800
H576        H  0.28656994  0.48399812  0.62119361     0.15400
C577        C  0.01108728  0.16983815  0.74677177    -0.16300
C578        C  0.01489708  0.21281312  0.74550126     0.07800
C579        C  0.51539811  0.26036301  0.74249112     0.09600
C580        C  0.51792409  0.30362424  0.74438931    -0.17200
C581        C  0.00820503  0.82193779  0.76152491    -0.16300
C582        C  0.01052467  0.77843283  0.76296406     0.07800
C583        C  0.01296932  0.72735195  0.76370482     0.09600
C584        C  0.01406337  0.68368639  0.76336665    -0.17200
C585        C  0.39695297  0.48196147  0.75303052    -0.14200
C586        C  0.37838585  0.52052885  0.75177934    -0.29400
H587        H  0.38808876  0.44610703  0.75574429     0.14800
H588        H  0.38716959  0.55671551  0.75187800     0.15400
C589        C  0.12829333  0.49584120  0.73740382    -0.14200
C590        C  0.14700058  0.49462260  0.76099111    -0.29400
H591        H  0.13698748  0.49538016  0.71408852     0.14800
H592        H  0.13830767  0.49068849  0.78411743     0.15400
C593        C  0.50632582  0.16023494  0.98613213    -0.16300
C594        C  0.50520261  0.20373257  0.98505225     0.07800
C595        C  0.50291028  0.25466703  0.98535761     0.09600
C596        C  0.50088551  0.29812812  0.98688125    -0.17200
C597        C  0.00111040  0.68180421  0.51002305    -0.16300
C598        C  0.50054437  0.73095678  0.49229096     0.07800
C599        C  0.50104566  0.78178867  0.49535871     0.09600
C600        C  0.50088532  0.82533286  0.49701629    -0.17200
C601        C  0.35835893  0.47448658  0.49329906    -0.14200
C602        C  0.37846177  0.48189168  0.99642957    -0.29400
H603        H  0.36845929  0.44394227  0.48085575     0.14800
H604        H  0.36952022  0.45444873  0.98141668     0.15400
C605        C  0.12858953  0.51464058  0.98298145    -0.14200
C606        C  0.10915503  0.47916375  0.50273306    -0.29400
H607        H  0.11867114  0.53707655  0.47358170     0.14800
H608        H  0.12088938  0.45877967  0.01416357     0.15400
C609        C  0.49600640  0.48227544  0.88002439    -0.14200
C610        C  0.01500367  0.50194659  0.87015822    -0.29400
H611        H  0.47962958  0.45944812  0.86951279     0.14800
H612        H  0.03292321  0.52130523  0.88076110     0.15400
C613        C  0.00388257  0.47840260  0.62040918    -0.14200
C614        C  0.50632681  0.48384528  0.63009543    -0.29400
H615        H  0.01719161  0.44783427  0.62829984     0.14800
H616        H  0.52117124  0.45749195  0.61877972     0.15400
O617        O  0.97046569  0.46912052  0.43712695    -0.76300
C618        C  0.98676171  0.35716194  0.49884869     0.84800
O619        O  0.92793653  0.53905376  0.02889336    -0.77400
O620        O  0.51171425  0.44950866  0.06428636    -0.78900
O621        O  0.56461226  0.51987227  0.47988492    -0.78700
O622        O  0.51154541  0.51264222  0.42561185    -0.77300
Zn623      Zn  0.96363980  0.45716870  0.48132389     1.55700
O624        O  0.56537713  0.45923325  0.01427999    -0.78700
Cd625      Cd  0.52005463  0.53476702  0.46959504     1.59700
Cd626      Cd  0.97353049  0.54107900  0.03284582     1.59600
O627        O  0.51384863  0.60953347  0.47375708    -0.78700
O628        O  0.99252729  0.49287178  0.50435259    -1.89200
Cd629      Cd  0.52148924  0.44201641  0.01914497     1.59900
O630        O  0.98555158  0.61241614  0.02750630    -0.78700
O631        O  0.51760985  0.37029933  0.00732386    -0.77300
C632        C  0.91011665  0.50643218  0.51312601     0.85200
C633        C  0.98966772  0.49157415  0.42165865     0.84900
O634        O  0.96756875  0.38442921  0.48615887    -0.76300
C635        C  0.57892279  0.49065306  0.99885620     0.85700
O636        O  0.92193994  0.47734877  0.49340870    -0.76400
C637        C  0.49230183  0.62302174  0.99945395     0.85800
C638        C  0.49523749  0.47862306  0.07989912     0.86100
O639        O  0.98428091  0.51971185  0.07592166    -0.78800
O640        O  0.52454055  0.60839606  0.26613536    -0.76300
C641        C  0.50983709  0.49421625  0.32936846     0.84800
O642        O  0.57244706  0.47503877  0.21589603    -0.77400
O643        O  0.99458824  0.38145565  0.27204522    -0.78900
O644        O  0.93167427  0.52583779  0.24713813    -0.78700
O645        O  0.98164173  0.61417061  0.24680405    -0.77300
Zn646      Zn  0.53245532  0.53583577  0.27015559     1.55700
O647        O  0.93723243  0.45786793  0.27338977    -0.78700
Cd648      Cd  0.97479426  0.54278092  0.23582873     1.59700
Cd649      Cd  0.52756700  0.45995607  0.21543985     1.59600
O650        O  0.97810895  0.53607118  0.18932585    -0.78700
O651        O  0.50466282  0.49813596  0.24693630    -1.89200
Cd652      Cd  0.98255218  0.45298089  0.28066548     1.59900
O653        O  0.51062449  0.47786182  0.17405704    -0.78700
O654        O  0.99092370  0.47085272  0.32525745    -0.77300
C655        C  0.58756054  0.49731056  0.23574257     0.85200
C656        C  0.50392850  0.63367436  0.25400706     0.84900
O657        O  0.52688491  0.52075155  0.31393723    -0.76300
C658        C  0.92086992  0.48955623  0.26055298     0.85700
O659        O  0.57527066  0.52001897  0.25828130    -0.76400
C660        C  0.99297253  0.50725803  0.17184097     0.85800
C661        C  0.00947528  0.36089314  0.25041754     0.86100
O662        O  0.52329124  0.38569310  0.22050865    -0.78800
O663        O  0.76617027  0.62776490  0.02193140    -0.76300
C664        C  0.74192160  0.51598981  0.08395799     0.84800
O665        O  0.81291947  0.45140851  0.48761289    -0.77400
O666        O  0.72267010  0.40803168  0.01825777    -0.78900
O667        O  0.67808335  0.53424650  0.47494473    -0.78700
O668        O  0.73451346  0.61063724  0.47969713    -0.77300
Zn669      Zn  0.77214980  0.55447678  0.02672781     1.55700
O670        O  0.67259741  0.49683807  0.01160065    -0.78700
Cd671      Cd  0.72406063  0.53913601  0.47277604     1.59700
Cd672      Cd  0.76809791  0.44352814  0.48083940     1.59600
O673        O  0.73789520  0.51920553  0.42964749    -0.78700
O674        O  0.74472767  0.52002953  0.00075545    -1.89200
Cd675      Cd  0.71573882  0.48182361  0.02419093     1.59900
O676        O  0.76180946  0.44801147  0.43469076    -0.78700
O677        O  0.72078097  0.49709347  0.06950277    -0.77300
C678        C  0.82763998  0.50427386  0.99855403     0.85200
C679        C  0.74818818  0.65424793  0.00675271     0.84900
O680        O  0.76348486  0.53658162  0.07065166    -0.76300
C681        C  0.66076312  0.51123795  0.49247959     0.85700
O682        O  0.81549746  0.53586211  0.01657757    -0.76400
C683        C  0.75111914  0.48173203  0.41839651     0.85800
C684        C  0.73541079  0.35994243  0.51078345     0.86100
O685        O  0.75645883  0.37516223  0.49414391    -0.78800
O686        O  0.76267776  0.61914359  0.26303489    -0.76300
C687        C  0.75528185  0.51187219  0.33468669     0.84800
O688        O  0.82736698  0.47679038  0.24172553    -0.77400
O689        O  0.74127869  0.38763065  0.27064597    -0.78900
O690        O  0.68260177  0.51553862  0.23144464    -0.78700
O691        O  0.72680790  0.61024675  0.22914337    -0.77300
Zn692      Zn  0.77555771  0.55184450  0.27427040     1.55700
O693        O  0.68607599  0.47279428  0.27417128    -0.78700
Cd694      Cd  0.72610559  0.53575513  0.22412116     1.59700
Cd695      Cd  0.78456089  0.46100216  0.22842668     1.59600
O696        O  0.73926373  0.52138108  0.18018332    -0.78700
O697        O  0.75479868  0.50268936  0.25156032    -1.89200
Cd698      Cd  0.73147061  0.46039536  0.27860491     1.59900
O699        O  0.78127481  0.47678776  0.18223270    -0.78700
O700        O  0.74197772  0.47651045  0.32267803    -0.77300
C701        C  0.83711581  0.51371738  0.25570887     0.85200
C702        C  0.74328073  0.63675325  0.24526400     0.84900
O703        O  0.76768638  0.54415805  0.31895302    -0.76300
C704        C  0.67065091  0.49334687  0.25362279     0.85700
O705        O  0.81979276  0.54604078  0.26747784    -0.76400
C706        C  0.76157961  0.50010065  0.16731815     0.85800
C707        C  0.75998916  0.36520649  0.25321243     0.86100
O708        O  0.77774570  0.38732603  0.23557402    -0.78800
N709        N  0.99680795  0.94962108  0.04064963    -0.34400
N710        N  0.99351077  0.05226864  0.03629179    -0.55000
N711        N  0.99884328  0.04218360  0.46860517    -0.34400
N712        N  0.00553365  0.93951531  0.47240207    -0.55000
C713        C  0.00297482  0.96199087  0.07009125     0.29200
C714        C  0.00664753  0.90352495  0.03588813     0.29200
C715        C  0.00369485  0.08966739  0.47326112     0.29200
C716        C  0.00672196  0.03139336  0.43912506     0.29200
C717        C  0.98870389  0.04863282  0.06691742     0.37800
C718        C  0.98592754  0.09813904  0.02870942     0.37800
C719        C  0.00186376  0.89264519  0.47975205     0.37800
C720        C  0.00113857  0.94287286  0.44178032     0.37800
C721        C  0.01700011  0.92314025  0.08402372    -0.19700
C722        C  0.01900832  0.88615102  0.06261631    -0.19700
C723        C  0.01473632  0.10940613  0.44655678    -0.19700
C724        C  0.01710474  0.07249679  0.42522433    -0.19700
C725        C  0.97797257  0.09240573  0.07872468    -0.20700
C726        C  0.97614122  0.12365950  0.05459759    -0.20700
C727        C  0.99533562  0.86616024  0.45364365    -0.20700
C728        C  0.99498139  0.89782450  0.42969173    -0.20700
C729        C  0.99587699  0.00730256  0.08455217    -0.16100
C730        C  0.00684684  0.87237935  0.50897409    -0.16100
C731        C  0.00395684  0.98566613  0.42443681    -0.16100
C732        C  0.99667139  0.11628970  0.50030401    -0.16100
H733        H  0.02534644  0.92163892  0.10705451     0.16800
H734        H  0.02872599  0.85057223  0.06624493     0.16800
H735        H  0.02082694  0.14648555  0.44294181     0.16800
H736        H  0.02591485  0.07559218  0.40226025     0.16800
H737        H  0.97236510  0.10121904  0.10227413     0.15100
H738        H  0.96915436  0.16131088  0.05611392     0.15100
H739        H  0.99172117  0.82774083  0.45187901     0.15100
H740        H  0.99075133  0.88849932  0.40609482     0.15100
H741        H  0.98397403  0.96939427  0.02539640     0.28400
H742        H  0.98771651  0.02016991  0.48383054     0.28400
N743        N  0.49738051  0.95104209  0.28111853    -0.34400
N744        N  0.49873730  0.05375181  0.27513105    -0.55000
N745        N  0.50064724  0.04285673  0.20690708    -0.34400
N746        N  0.49441405  0.94054255  0.21306092    -0.55000
C747        C  0.49026716  0.96468486  0.31036517     0.29200
C748        C  0.48967937  0.90443714  0.27756299     0.29200
C749        C  0.49618527  0.09115210  0.21071493     0.29200
C750        C  0.49268260  0.03116231  0.17784581     0.29200
C751        C  0.50155200  0.05150874  0.30599278     0.37800
C752        C  0.50536660  0.09930998  0.26708010     0.37800
C753        C  0.49799156  0.89366373  0.22102600     0.37800
C754        C  0.49718681  0.94190422  0.18209305     0.37800
C755        C  0.47757325  0.92628941  0.32525733    -0.19700
C756        C  0.47766171  0.88808828  0.30478907    -0.19700
C757        C  0.48553119  0.11048604  0.18376891    -0.19700
C758        C  0.48289647  0.07266001  0.16330549    -0.19700
C759        C  0.50969909  0.09595826  0.31752207    -0.20700
C760        C  0.51222026  0.12609237  0.29297954    -0.20700
C761        C  0.50266644  0.86514986  0.19499709    -0.20700
C762        C  0.50201009  0.89555798  0.17044255    -0.20700
C763        C  0.49556547  0.01052172  0.32403970    -0.16100
C764        C  0.49474427  0.87542877  0.25102587    -0.16100
C765        C  0.49435790  0.98414606  0.16409748    -0.16100
C766        C  0.50258057  0.11866859  0.23733272    -0.16100
H767        H  0.46863838  0.92598305  0.34829026     0.16800
H768        H  0.46935499  0.85249652  0.30927964     0.16800
H769        H  0.47967612  0.14791995  0.17947304     0.16800
H770        H  0.47404371  0.07540631  0.14057267     0.16800
H771        H  0.51329179  0.10592642  0.34113301     0.15100
H772        H  0.51784833  0.16382392  0.29420964     0.15100
H773        H  0.50567690  0.82626755  0.19372148     0.15100
H774        H  0.50476600  0.88453378  0.14675608     0.15100
H775        H  0.50968704  0.97023973  0.26531994     0.28400
H776        H  0.51123869  0.02040494  0.22245789     0.28400
N777        N  0.74918935  0.94842874  0.46426863    -0.34400
N778        N  0.74699993  0.96788266  0.03610592    -0.55000
N779        N  0.74560809  0.07097742  0.03649969    -0.34400
N780        N  0.74186787  0.05134168  0.47079909    -0.55000
C781        C  0.74428533  0.90079422  0.46833898     0.29200
C782        C  0.74080929  0.95976231  0.43533739     0.29200
C783        C  0.73879897  0.06359947  0.06646616     0.29200
C784        C  0.73906948  0.11779762  0.03046097     0.29200
C785        C  0.74998711  0.91978235  0.03071559     0.37800
C786        C  0.74723095  0.97451972  0.06698499     0.37800
C787        C  0.74459856  0.04889257  0.43981313     0.37800
C788        C  0.74352106  0.09861106  0.47880266     0.37800
C789        C  0.73294631  0.88150261  0.44163483    -0.19700
C790        C  0.73045837  0.91870128  0.42106327    -0.19700
C791        C  0.72832114  0.10667310  0.07961148    -0.19700
C792        C  0.72847720  0.14073653  0.05698565    -0.19700
C793        C  0.75175744  0.89576885  0.05836999    -0.20700
C794        C  0.74966036  0.93023342  0.08115635    -0.20700
C795        C  0.74791469  0.09484814  0.42824829    -0.20700
C796        C  0.74723295  0.12618834  0.45281558    -0.20700
C797        C  0.74830186  0.89637796  0.00170117    -0.16100
C798        C  0.74215820  0.00625228  0.42166549    -0.16100
C799        C  0.74401516  0.14126355  0.00227317    -0.16100
C800        C  0.74258846  0.01958082  0.08253115    -0.16100
H801        H  0.72657767  0.84457360  0.43756235     0.16800
H802        H  0.72113047  0.91605187  0.39854606     0.16800
H803        H  0.72116944  0.11315142  0.10304320     0.16800
H804        H  0.72166542  0.17830481  0.05984403     0.16800
H805        H  0.75318963  0.85717045  0.06191377     0.15100
H806        H  0.74871993  0.92304049  0.10532738     0.15100
H807        H  0.75014465  0.10510515  0.40457450     0.15100
H808        H  0.74868563  0.16507489  0.45157845     0.15100
H809        H  0.76013368  0.97058228  0.47956632     0.28400
H810        H  0.75685492  0.04725288  0.02158138     0.28400
N811        N  0.74887387  0.95122580  0.21487671    -0.34400
N812        N  0.75249239  0.05397226  0.21902017    -0.55000
N813        N  0.74812518  0.04924742  0.28761169    -0.34400
N814        N  0.74755169  0.94566605  0.28288299    -0.54600
C815        C  0.75747046  0.96074690  0.18569306     0.29200
C816        C  0.75353196  0.90339788  0.21926682     0.29200
C817        C  0.75589884  0.09575536  0.28348757     0.29200
C818        C  0.75317622  0.03794827  0.31742989     0.29200
C819        C  0.75079628  0.04994887  0.18804337     0.37800
C820        C  0.75046062  0.10165466  0.22613863     0.37800
C821        C  0.74205569  0.89919015  0.27540469     0.37800
C822        C  0.74378049  0.94987409  0.31366727     0.37800
C823        C  0.76767906  0.91825262  0.17156446    -0.19700
C824        C  0.76497238  0.88210207  0.19260961    -0.19700
C825        C  0.76535131  0.11457926  0.31117277    -0.19700
C826        C  0.76389459  0.07817810  0.33236858    -0.19700
C827        C  0.74799644  0.09540852  0.17545309    -0.20700
C828        C  0.74760781  0.12801405  0.19944265    -0.20700
C829        C  0.73489100  0.87381271  0.30151749    -0.20700
C830        C  0.73616202  0.90572208  0.32564307    -0.20700
C831        C  0.75480606  0.00610826  0.17102349    -0.16100
C832        C  0.74613326  0.87787441  0.24600256    -0.16100
C833        C  0.74866644  0.99220481  0.33137297    -0.16100
C834        C  0.75400470  0.12233430  0.25579595    -0.16100
H835        H  0.77641855  0.91349347  0.14857312     0.16800
H836        H  0.77089700  0.84436924  0.18873959     0.16800
H837        H  0.77306448  0.15066881  0.31557569     0.16800
H838        H  0.77068694  0.08089486  0.35591775     0.16800
H839        H  0.74727813  0.10446443  0.15149850     0.15100
H840        H  0.74629217  0.16690657  0.19731391     0.15100
H841        H  0.73000948  0.83585624  0.30318217     0.15100
H842        H  0.73217228  0.89699053  0.34928431     0.15100
H843        H  0.73733446  0.97440732  0.22994470     0.28400
H844        H  0.73778873  0.02804755  0.27137530     0.28400
C845        C  0.73791358  0.01242316  0.38747284    -0.14200
C846        C  0.75250878  0.98575150  0.36555777    -0.29400
H847        H  0.72334701  0.04176561  0.38013362     0.14800
H848        H  0.76701325  0.95624007  0.37277011     0.15400
C849        C  0.73820244  0.02077157  0.11690762    -0.14200
C850        C  0.75953176  0.00716182  0.13675273    -0.29400
H851        H  0.71710021  0.03460527  0.12604579     0.14800
H852        H  0.78058692  0.99321922  0.12755794     0.15400
C853        C  0.00636925  0.98087931  0.38987702    -0.14200
C854        C  0.49250300  0.01763492  0.35836528    -0.29400
H855        H  0.51866003  0.95726614  0.37028343     0.14800
H856        H  0.97988746  0.04187231  0.37922342     0.15400
C857        C  0.99919641  0.01415845  0.11884272    -0.14200
C858        C  0.49072522  0.97745352  0.12982384    -0.29400
H859        H  0.51913191  0.03230566  0.11611293     0.14800
H860        H  0.97601969  0.95307526  0.13214677     0.15400
C861        C  0.76097438  0.31299950  0.25376853    -0.16300
C862        C  0.76062235  0.26934217  0.25525429     0.07800
C863        C  0.75911006  0.21822910  0.25705900     0.09600
C864        C  0.75708882  0.17467369  0.25754173    -0.17200
C865        C  0.74042320  0.68828860  0.24314330    -0.16300
C866        C  0.74015845  0.73176367  0.24218609     0.07800
C867        C  0.74169265  0.78257398  0.24220481     0.09600
C868        C  0.74374156  0.82587058  0.24335212    -0.17200
C869        C  0.74171640  0.19361438  0.00229764    -0.16300
C870        C  0.73320584  0.21379722  0.51382371     0.07800
C871        C  0.73212202  0.26495715  0.51469244     0.09600
C872        C  0.73267888  0.30853657  0.51392834    -0.17200
C873        C  0.74987626  0.70601321  0.00845068    -0.16300
C874        C  0.74991462  0.74953271  0.00689587     0.07800
C875        C  0.74913731  0.80034218  0.00365259     0.09600
C876        C  0.74845559  0.84383399  0.00161688    -0.17200
C877        C  0.75380170  0.47694856  0.38530180    -0.14200
C878        C  0.75578916  0.51609692  0.36788792    -0.29400
H879        H  0.75435337  0.44092486  0.37509089     0.14800
H880        H  0.75772165  0.55178247  0.37822318     0.15400
C881        C  0.74063665  0.51398825  0.11721623    -0.14200
C882        C  0.76450428  0.50315458  0.13394262    -0.29400
H883        H  0.71884352  0.51766232  0.12804881     0.14800
H884        H  0.78587605  0.49525763  0.12296611     0.15400
C885        C  0.50507066  0.17076163  0.23437801    -0.16300
C886        C  0.50732732  0.21419441  0.23390462     0.07800
C887        C  0.00845927  0.26547258  0.24783550     0.09600
C888        C  0.01021151  0.30893106  0.24872755    -0.17200
C889        C  0.49626629  0.82334618  0.25476080    -0.16300
C890        C  0.49877858  0.77997037  0.25674641     0.07800
C891        C  0.50204709  0.72905312  0.25750500     0.09600
C892        C  0.50396183  0.68547991  0.25673765    -0.17200
C893        C  0.88854598  0.48289508  0.26037077    -0.14200
C894        C  0.86931220  0.52035196  0.25785257    -0.29400
H895        H  0.88036009  0.44650267  0.26256410     0.14800
H896        H  0.87732263  0.55704194  0.25820846     0.15400
C897        C  0.62014783  0.49704099  0.23222222    -0.14200
C898        C  0.63799296  0.49253818  0.25644252    -0.29400
H899        H  0.62962782  0.49825588  0.20926797     0.14800
H900        H  0.62833533  0.48709350  0.27901963     0.15400
C901        C  0.99247191  0.16816809  0.49776189    -0.16300
C902        C  0.98886477  0.21135989  0.49625045     0.07800
C903        C  0.98561597  0.26215011  0.49559223     0.09600
C904        C  0.98469503  0.30568367  0.49626940    -0.17200
C905        C  0.49198588  0.67502642  0.00075122    -0.16300
C906        C  0.00472685  0.72861657  0.01019322     0.07800
C907        C  0.00550559  0.77973772  0.01115559     0.09600
C908        C  0.00507235  0.82340938  0.01087203    -0.17200
C909        C  0.86021943  0.49780906  0.99647450    -0.14200
C910        C  0.87744700  0.51028491  0.51586614    -0.29400
H911        H  0.86896590  0.47124679  0.97996709     0.14800
H912        H  0.86768373  0.53844855  0.53062568     0.15400
C913        C  0.62829491  0.51604799  0.48777356    -0.14200
C914        C  0.61135954  0.49264845  0.00223243    -0.29400
H915        H  0.61835129  0.55090420  0.97251333     0.14800
H916        H  0.61707419  0.46737804  0.52234236     0.15400
C917        C  0.98892822  0.48659515  0.38840998    -0.14200
C918        C  0.51145393  0.49792555  0.36259459    -0.29400
H919        H  0.97072955  0.46707784  0.37845177     0.14800
H920        H  0.52944146  0.51838006  0.37218984     0.15400
C921        C  0.49747971  0.47583962  0.11295747    -0.14200
C922        C  0.98873205  0.51093164  0.13896727    -0.29400
H923        H  0.51120038  0.44657568  0.12193934     0.14800
H924        H  0.97393604  0.53933501  0.13069458     0.15400
O925        O  0.97222724  0.47065341  0.93564447    -0.76300
C926        C  0.98777041  0.36101371  0.99842177     0.84800
O927        O  0.92572966  0.53230061  0.53067199    -0.77400
O928        O  0.50420687  0.47498465  0.56751429    -0.78900
O929        O  0.56522905  0.51979012  0.98128984    -0.78700
O930        O  0.51377390  0.51382009  0.92659863    -0.77300
Zn931      Zn  0.96448639  0.46112818  0.98027980     1.55700
O932        O  0.56059053  0.46938569  0.51886232    -0.78700
Cd933      Cd  0.52033411  0.52920569  0.97188513     1.59700
Cd934      Cd  0.97146610  0.53725885  0.53418826     1.59600
O935        O  0.50989176  0.60146017  0.98046221    -0.78700
O936        O  0.99405490  0.49635907  0.00297126    -1.89200
Cd937      Cd  0.51573960  0.45796746  0.52345350     1.59900
O938        O  0.98254991  0.60913102  0.52816754    -0.78700
O939        O  0.50952008  0.38525461  0.51511067    -0.77300
C940        C  0.91158869  0.51482301  0.01120853     0.85200
C941        C  0.99157407  0.49301193  0.92024848     0.84900
O942        O  0.96802247  0.38829448  0.98650488    -0.76300
C943        C  0.57629559  0.49391827  0.50067754     0.85700
O944        O  0.92260262  0.48453286  0.99163049    -0.76400
C945        C  0.49700595  0.63593077  0.49106554     0.85800
C946        C  0.48877654  0.50874073  0.58050572     0.86100
O947        O  0.98361501  0.51714816  0.57733325    -0.78800
O948        O  0.52813230  0.60747081  0.76180659    -0.76300
C949        C  0.51595340  0.49954271  0.82957056     0.84800
O950        O  0.58369868  0.46924494  0.72249238    -0.77400
O951        O  0.00457143  0.37839705  0.77058656    -0.78900
O952        O  0.94053689  0.52517456  0.74955137    -0.78700
O953        O  0.99126217  0.61285230  0.74851351    -0.77300
Zn954      Zn  0.53911210  0.53699720  0.76952573     1.55700
O955        O  0.94635715  0.45307732  0.77095542    -0.78700
Cd956      Cd  0.98347425  0.54185232  0.73744811     1.59700
Cd957      Cd  0.53965385  0.45137954  0.71990196     1.59600
O958        O  0.98509664  0.53634479  0.69097599    -0.78700
O959        O  0.51382287  0.49357039  0.74683786    -1.89200
Cd960      Cd  0.99144238  0.44932187  0.77938900     1.59900
O961        O  0.52735222  0.46142759  0.67606360    -0.78700
O962        O  0.99797867  0.46728099  0.82423483    -0.77300
C963        C  0.59697266  0.49845612  0.73995910     0.85200
C964        C  0.50813627  0.62902079  0.74638853     0.84900
O965        O  0.53249801  0.52678513  0.81402738    -0.76300
C966        C  0.92987126  0.48671744  0.76038450     0.85700
O967        O  0.58300851  0.52523619  0.75957040    -0.76400
C968        C  0.99923349  0.50794207  0.67266533     0.85800
C969        C  0.01914796  0.35879962  0.74840536     0.86100
O970        O  0.53497575  0.37813991  0.72780357    -0.78800
O971        O  0.76566533  0.60680929  0.51875050    -0.76300
C972        C  0.74095485  0.50192039  0.58532098     0.84800
O973        O  0.81234332  0.47720880  0.98161734    -0.77400
O974        O  0.71680603  0.38852454  0.52436869    -0.78900
O975        O  0.67615779  0.55450746  0.97678808    -0.78700
O976        O  0.72889778  0.63658185  0.98920739    -0.77300
Zn977      Zn  0.77094108  0.53436949  0.52669619     1.55700
O978        O  0.67066999  0.48410272  0.51362285    -0.78700
Cd979      Cd  0.72145210  0.56680317  0.97557231     1.59700
Cd980      Cd  0.76766724  0.47360284  0.97430823     1.59600
O981        O  0.73568976  0.56166104  0.93096205    -0.78700
O982        O  0.74435285  0.49578774  0.50231236    -1.89200
Cd983      Cd  0.71313474  0.46379481  0.52712150     1.59900
O984        O  0.76239053  0.49258741  0.93005495    -0.78700
O985        O  0.71921770  0.48243009  0.57211682    -0.77300
C986        C  0.82725473  0.48270812  0.50250721     0.85200
C987        C  0.75106070  0.63093798  0.49906851     0.84900
O988        O  0.76225951  0.52097699  0.57074473    -0.76300
C989        C  0.66077412  0.52548448  0.99241595     0.85700
O990        O  0.81411615  0.51627516  0.51809819    -0.76400
C991        C  0.75086672  0.52899566  0.91679316     0.85800
C992        C  0.73883478  0.38325337  0.99951702     0.86100
O993        O  0.75620837  0.40263275  0.98038995    -0.78800
O994        O  0.77252527  0.61555258  0.76768279    -0.76300
C995        C  0.76449306  0.49643655  0.83421644     0.84800
O996        O  0.83669548  0.47712171  0.73941454    -0.77400
O997        O  0.74946934  0.38317447  0.76418036    -0.78900
O998        O  0.69169377  0.52027073  0.73582379    -0.78700
O999        O  0.73969106  0.61044691  0.73030895    -0.77300
Zn1000     Zn  0.78433046  0.54637485  0.77681173     1.55700
O1001       O  0.69566652  0.46898638  0.77451428    -0.78700
Cd1002     Cd  0.73547979  0.53615654  0.72564241     1.59700
Cd1003     Cd  0.79387867  0.46043922  0.72690758     1.59600
O1004       O  0.74493315  0.51823679  0.68120822    -0.78700
O1005       O  0.76415825  0.50005512  0.75143072    -1.89200
Cd1006     Cd  0.74088014  0.45435380  0.77602387     1.59900
O1007       O  0.78785318  0.47562988  0.68114465    -0.78700
O1008       O  0.75298503  0.46143868  0.82015142    -0.77300
C1009       C  0.84617539  0.51101584  0.75639993     0.85200
C1010       C  0.75525550  0.63524487  0.74845894     0.84900
O1011       O  0.77531865  0.53263185  0.82071895    -0.76300
C1012       C  0.68002070  0.49463042  0.75658102     0.85700
O1013       O  0.82866546  0.54034879  0.77076311    -0.76400
C1014       C  0.76654580  0.49667258  0.66727423     0.85800
C1015       C  0.76976762  0.36256737  0.74792464     0.86100
O1016       O  0.78874934  0.38629003  0.73279865    -0.78800
N1017       N  0.00456017  0.94677229  0.54074668    -0.34400
N1018       N  0.00232555  0.04984695  0.53672021    -0.55000
N1019       N  0.99372739  0.04488002  0.96776393    -0.34400
N1020       N  0.00092199  0.94262571  0.97214600    -0.55000
C1021       C  0.01219928  0.95858975  0.56986728     0.29200
C1022       C  0.01238506  0.89976150  0.53585293     0.29200
C1023       C  0.99910233  0.09209947  0.97292181     0.29200
C1024       C  0.00304756  0.03386385  0.93871700     0.29200
C1025       C  0.00005154  0.04637537  0.56761144     0.37800
C1026       C  0.99460567  0.09592323  0.52977181     0.37800
C1027       C  0.99780021  0.89566781  0.97950330     0.37800
C1028       C  0.99728410  0.94555165  0.94140117     0.37800
C1029       C  0.02525466  0.91849834  0.58339208    -0.19700
C1030       C  0.02498326  0.88128814  0.56215879    -0.19700
C1031       C  0.01188601  0.11143891  0.94690699    -0.19700
C1032       C  0.01470692  0.07458619  0.92552557    -0.19700
C1033       C  0.99123151  0.09068072  0.58022359    -0.20700
C1034       C  0.98760081  0.12189179  0.55633997    -0.20700
C1035       C  0.99214510  0.86874329  0.95332143    -0.20700
C1036       C  0.99186151  0.90023094  0.92928452    -0.20700
C1037       C  0.00699868  0.00428275  0.58461114    -0.16100
C1038       C  0.00298857  0.87578597  0.00876203    -0.16100
C1039       C  0.00089581  0.98802608  0.92398055    -0.16100
C1040       C  0.99097355  0.11888029  0.99968200    -0.16100
H1041       H  0.03437176  0.91624986  0.60606724     0.16800
H1042       H  0.03341818  0.84483982  0.56559308     0.16800
H1043       H  0.01878587  0.14822522  0.94376946     0.16800
H1044       H  0.02479703  0.07737047  0.90310192     0.16800
H1045       H  0.98788070  0.09992643  0.60408493     0.15100
H1046       H  0.98125249  0.15976658  0.55841067     0.15100
H1047       H  0.98919743  0.83014288  0.95156494     0.15100
H1048       H  0.98842355  0.89055617  0.90559136     0.15100
H1049       H  0.99189985  0.96762907  0.52594154     0.28400
H1050       H  0.98160733  0.02310635  0.98232218     0.28400
N1051       N  0.49919612  0.94382285  0.77961977    -0.34400
N1052       N  0.49986163  0.04685240  0.77726614    -0.55000
N1053       N  0.50184909  0.04207331  0.70862430    -0.34400
N1054       N  0.49638086  0.93955033  0.71117410    -0.55000
C1055       C  0.49220380  0.95460547  0.80934974     0.29200
C1056       C  0.49152431  0.89761194  0.77427161     0.29200
C1057       C  0.49711418  0.08985974  0.71420364     0.29200
C1058       C  0.49392370  0.03294792  0.67919530     0.29200
C1059       C  0.50293071  0.04193136  0.80797550     0.37800
C1060       C  0.50636847  0.09310327  0.77075189     0.37800
C1061       C  0.50044171  0.89213985  0.71753732     0.37800
C1062       C  0.49949981  0.94365442  0.68036309     0.37800
C1063       C  0.47970260  0.91471835  0.82278055    -0.19700
C1064       C  0.47967565  0.87861282  0.80084135    -0.19700
C1065       C  0.48630260  0.11153847  0.68803421    -0.19700
C1066       C  0.48386291  0.07559250  0.66619636    -0.19700
C1067       C  0.51100641  0.08547680  0.82094248    -0.20700
C1068       C  0.51328120  0.11770208  0.79747681    -0.20700
C1069       C  0.50593847  0.86606398  0.69065974    -0.20700
C1070       C  0.50518225  0.89853516  0.66721296    -0.20700
C1071       C  0.49734464  0.99924284  0.82462912    -0.16100
C1072       C  0.49661070  0.87115879  0.74669141    -0.16100
C1073       C  0.49598600  0.98723626  0.66382504    -0.16100
C1074       C  0.50371961  0.11491487  0.74167850    -0.16100
H1075       H  0.47105672  0.91191467  0.84584029     0.16800
H1076       H  0.47150781  0.84256638  0.80399285     0.16800
H1077       H  0.48030022  0.14928716  0.68513295     0.16800
H1078       H  0.47508803  0.08034417  0.64355999     0.16800
H1079       H  0.51480043  0.09350566  0.84480338     0.15100
H1080       H  0.51886123  0.15531941  0.79996633     0.15100
H1081       H  0.50948129  0.82741248  0.68807581     0.15100
H1082       H  0.50833255  0.88962319  0.64325129     0.15100
H1083       H  0.51139183  0.96455910  0.76455978     0.28400
H1084       H  0.51271043  0.01849251  0.72330677     0.28400
N1085       N  0.75150346  0.96660658  0.96717782    -0.34400
N1086       N  0.74978181  0.94082911  0.53259868    -0.55000
N1087       N  0.74681355  0.04396997  0.53884514    -0.34400
N1088       N  0.74702790  0.06992789  0.96797692    -0.55000
C1089       C  0.74522611  0.92004500  0.97316099     0.29200
C1090       C  0.74589764  0.97444457  0.93703046     0.29200
C1091       C  0.74171272  0.03156401  0.56844683     0.29200
C1092       C  0.73698832  0.09021840  0.53563865     0.29200
C1093       C  0.75556123  0.89421628  0.52435595     0.37800
C1094       C  0.75408135  0.94402383  0.56325886     0.37800
C1095       C  0.75233295  0.06318964  0.93753831     0.37800
C1096       C  0.75024332  0.11759685  0.97388427     0.37800
C1097       C  0.73596840  0.89779300  0.94644328    -0.19700
C1098       C  0.73602102  0.93213402  0.92389073    -0.19700
C1099       C  0.72860683  0.07055610  0.58406605    -0.19700
C1100       C  0.72591771  0.10761694  0.56353671    -0.19700
C1101       C  0.76353882  0.86783979  0.54991078    -0.20700
C1102       C  0.76258006  0.89926827  0.57442013    -0.20700
C1103       C  0.75891525  0.10683702  0.92419794    -0.20700
C1104       C  0.75763225  0.14114084  0.94711114    -0.20700
C1105       C  0.75084774  0.87374274  0.49496494    -0.16100
C1106       C  0.74937281  0.01886714  0.92127144    -0.16100
C1107       C  0.73895713  0.11804718  0.50872095    -0.16100
C1108       C  0.74846065  0.98594433  0.58165788    -0.16100
H1109       H  0.72918097  0.86080775  0.94361854     0.16800
H1110       H  0.72877553  0.92667602  0.90070748     0.16800
H1111       H  0.72100576  0.07194541  0.60761270     0.16800
H1112       H  0.71641473  0.14318612  0.56850742     0.16800
H1113       H  0.76884998  0.82956556  0.55098606     0.15100
H1114       H  0.76716614  0.88985570  0.59782724     0.15100
H1115       H  0.76382330  0.11361127  0.90039699     0.15100
H1116       H  0.76121239  0.17933158  0.94423203     0.15100
H1117       H  0.76153108  0.99006820  0.98237879     0.28400
H1118       H  0.75872055  0.02390938  0.52234883     0.28400
N1119       N  0.75290494  0.95038602  0.71523914    -0.34400
N1120       N  0.75799817  0.05281757  0.71871959    -0.55000
N1121       N  0.75634846  0.05028848  0.78734806    -0.34400
N1122       N  0.75544037  0.94709665  0.78381823    -0.54600
C1123       C  0.76002629  0.95952524  0.68553716     0.29200
C1124       C  0.75922863  0.90311181  0.72018346     0.29200
C1125       C  0.76524656  0.09583551  0.78208592     0.29200
C1126       C  0.76275595  0.03969806  0.81691008     0.29200
C1127       C  0.75349150  0.04851008  0.68815487     0.37800
C1128       C  0.75524819  0.10045370  0.72574146     0.37800
C1129       C  0.75000031  0.90033847  0.77696259     0.37800
C1130       C  0.75204800  0.95227641  0.81465064     0.37800
C1131       C  0.77100615  0.91743219  0.67161826    -0.19700
C1132       C  0.77019677  0.88179959  0.69329714    -0.19700
C1133       C  0.77704945  0.11472062  0.80869705    -0.19700
C1134       C  0.77568278  0.07927171  0.83050938    -0.19700
C1135       C  0.74775002  0.09361353  0.67586937    -0.20700
C1136       C  0.74885386  0.12638443  0.69956058    -0.20700
C1137       C  0.74321674  0.87580819  0.80353978    -0.20700
C1138       C  0.74455935  0.90854102  0.82728122    -0.20700
C1139       C  0.75675453  0.00492402  0.67086528    -0.16100
C1140       C  0.75394062  0.87803109  0.74774025    -0.16100
C1141       C  0.75735323  0.99514197  0.83174923    -0.16100
C1142       C  0.76169822  0.12169371  0.75446336    -0.16100
H1143       H  0.77938444  0.91289408  0.64847174     0.16800
H1144       H  0.77728959  0.84448746  0.68975162     0.16800
H1145       H  0.78604083  0.15025178  0.81199288     0.16800
H1146       H  0.78398532  0.08203638  0.85351652     0.16800
H1147       H  0.74374387  0.10239958  0.65224679     0.15100
H1148       H  0.74598273  0.16513616  0.69754038     0.15100
H1149       H  0.73843029  0.83789263  0.80573510     0.15100
H1150       H  0.74081746  0.90061609  0.85112483     0.15100
H1151       H  0.74171643  0.97356339  0.73062306     0.28400
H1152       H  0.74420226  0.02956548  0.77225332     0.28400
C1153       C  0.74659048  0.02160378  0.88669990    -0.14200
C1154       C  0.76027081  0.99101241  0.86620520    -0.29400
H1155       H  0.73364423  0.05174190  0.87774351     0.14800
H1156       H  0.77329531  0.96071554  0.87480778     0.15400
C1157       C  0.74633539  0.97983179  0.61598936    -0.14200
C1158       C  0.75977067  0.00891946  0.63642126    -0.29400
H1159       H  0.73370891  0.94981697  0.62449040     0.14800
H1160       H  0.77233776  0.03876862  0.62756566     0.15400
C1161       C  0.00559439  0.98238948  0.88967165    -0.14200
C1162       C  0.49447978  0.00356948  0.85916724    -0.29400
H1163       H  0.51790894  0.93945907  0.87000451     0.14800
H1164       H  0.98032923  0.04331718  0.87645676     0.15400
C1165       C  0.01105668  0.01016035  0.61879460    -0.14200
C1166       C  0.49189281  0.98312883  0.62948038    -0.29400
H1167       H  0.51946676  0.03975536  0.61680215     0.14800
H1168       H  0.98661510  0.95018639  0.63200815     0.15400
C1169       C  0.77134316  0.31062554  0.74746419    -0.16300
C1170       C  0.77092858  0.26719925  0.74952285     0.07800
C1171       C  0.76881931  0.21666808  0.75301620     0.09600
C1172       C  0.76597248  0.17355882  0.75502713    -0.17200
C1173       C  0.75361848  0.68716434  0.74704824    -0.16300
C1174       C  0.75315866  0.73077715  0.74618478     0.07800
C1175       C  0.75329298  0.78189658  0.74575689     0.09600
C1176       C  0.75363094  0.82553060  0.74615375    -0.17200
C1177       C  0.73532030  0.17025193  0.51194329    -0.16300
C1178       C  0.73989716  0.23711286  0.00188563     0.07800
C1179       C  0.73832774  0.28803451  0.00105589     0.09600
C1180       C  0.73789370  0.33153947  0.00028576    -0.17200
C1181       C  0.75310227  0.68283845  0.49834317    -0.16300
C1182       C  0.75333498  0.72637343  0.49621916     0.07800
C1183       C  0.75250899  0.77742630  0.49350921     0.09600
C1184       C  0.75157299  0.82113270  0.49265275    -0.17200
C1185       C  0.75509338  0.53317079  0.88385374    -0.14200
C1186       C  0.76431894  0.49478449  0.86724498    -0.29400
H1187       H  0.74885410  0.56687337  0.87284797     0.14800
H1188       H  0.76808887  0.45986141  0.87780890     0.15400
C1189       C  0.74132649  0.50205576  0.61862424    -0.14200
C1190       C  0.76673906  0.49637526  0.63383475    -0.29400
H1191       H  0.72016996  0.50401411  0.63084849     0.14800
H1192       H  0.78763257  0.49010660  0.62155758     0.15400
C1193       C  0.50728580  0.16690043  0.74023442    -0.16300
C1194       C  0.51106266  0.20995491  0.74065775     0.07800
C1195       C  0.01876431  0.26339190  0.74534074     0.09600
C1196       C  0.02038657  0.30687136  0.74623540    -0.17200
C1197       C  0.49753832  0.81879124  0.74832031    -0.16300
C1198       C  0.49964428  0.77525869  0.74873383     0.07800
C1199       C  0.50299912  0.72435299  0.74829551     0.09600
C1200       C  0.50582930  0.68089112  0.74749213    -0.17200
C1201       C  0.89759114  0.47995635  0.75970758    -0.14200
C1202       C  0.87829226  0.51759095  0.75915976    -0.29400
H1203       H  0.88948757  0.44332086  0.75974576     0.14800
H1204       H  0.88616461  0.55417592  0.76169634     0.15400
C1205       C  0.62936148  0.50162343  0.73664036    -0.14200
C1206       C  0.64745139  0.49465448  0.76035836    -0.29400
H1207       H  0.63862866  0.50550100  0.71375171     0.14800
H1208       H  0.63814652  0.48594817  0.78262825     0.15400
C1209       C  0.98881781  0.17116436  0.99745371    -0.16300
C1210       C  0.98701653  0.21468677  0.99617274     0.07800
C1211       C  0.98547814  0.26576669  0.99564797     0.09600
C1212       C  0.98540720  0.30938219  0.99625162    -0.17200
C1213       C  0.49940676  0.68753442  0.49047033    -0.16300
C1214       C  0.00324588  0.72527814  0.51118500     0.07800
C1215       C  0.00550618  0.77631681  0.51184768     0.09600
C1216       C  0.00674983  0.81992103  0.51129946    -0.17200
C1217       C  0.85993548  0.47956128  0.50089964    -0.14200
C1218       C  0.87905474  0.52254548  0.01383714    -0.29400
H1219       H  0.86988589  0.45095461  0.48660327     0.14800
H1220       H  0.87045833  0.54894530  0.03051456     0.15400
C1221       C  0.62833586  0.52487985  0.98793719    -0.14200
C1222       C  0.60884577  0.49116701  0.50459943    -0.29400
H1223       H  0.62031889  0.53991509  0.46996506     0.14800
H1224       H  0.62157962  0.46656474  0.01747547     0.15400
C1225       C  0.99224691  0.48638026  0.88704714    -0.14200
C1226       C  0.51594057  0.50481888  0.86280772    -0.29400
H1227       H  0.97423796  0.46723550  0.87645052     0.14800
H1228       H  0.53219156  0.52801109  0.87318918     0.15400
C1229       C  0.48824597  0.51211395  0.61380443    -0.14200
C1230       C  0.99305632  0.51167271  0.64018245    -0.29400
H1231       H  0.47380397  0.53922126  0.62492854     0.14800
H1232       H  0.97947355  0.54201690  0.63246357     0.15400
loop_ 
_geom_bond_atom_site_label_1 
_geom_bond_atom_site_label_2 
_geom_bond_distance 
_geom_bond_site_symmetry_2 
_ccdc_geom_bond_type 
O1           C17   1.271       .  A
O1           Zn7   1.986       .  S
C2           O18   1.272       .  A
C2          O939   1.271       .  A
C2          C288   1.437       .  S
O3          C324   1.277   1_554  A
O3          Cd10   2.089       .  S
O4           C22   1.270       .  A
O4          Cd13   2.034       .  S
O5          C327   1.275       .  A
O5           Cd9   2.085       .  S
O6          C633   1.276   1_455  A
O6           Cd9   2.050       .  S
Zn7          O18   2.022       .  S
Zn7          O20   2.035       .  S
Zn7          O12   1.946       .  S
O8           C19   1.271   1_554  A
O8          Cd13   2.057       .  S
Cd9          O11   2.084       .  S
Cd9         O628   1.996   1_455  S
Cd10         O14   2.084       .  S
Cd10         O23   2.056       .  S
Cd10        O320   2.002   1_554  S
O11         C329   1.275   1_455  A
O12        Cd625   2.000       .  S
O12        Cd318   1.995       .  S
O12        Cd937   1.982       .  S
Cd13         O15   2.058       .  S
Cd13        O936   1.990   1_455  S
O14         C637   1.275   1_554  A
O15         C926   1.270   1_454  A
C16          O20   1.276       .  A
C16         O311   1.271       .  A
C16         C294   1.477       .  S
C17         O622   1.278       .  A
C17         C301   1.461       .  S
C19         O313   1.274       .  A
C19         C298   1.473       .  S
C21         O319   1.274   1_554  A
C21         O630   1.273   1_455  A
C21         C289   1.441       .  S
C22         O639   1.274   1_455  A
C22         C305   1.455       .  S
O23         C638   1.276       .  A
O24          C40   1.274       .  A
O24         Zn30   2.037       .  S
C25          O41   1.271       .  A
C25         O654   1.276   1_455  A
C25         C302   1.459       .  S
O26          C39   1.273       .  A
O26         Cd33   2.071       .  S
O27          C45   1.273       .  A
O27         Cd36   2.076       .  S
O28          C42   1.273       .  A
O28         Cd32   2.066       .  S
O29         C656   1.270       .  A
O29         Cd32   2.056       .  S
Zn30         O41   1.989       .  S
Zn30         O43   2.026       .  S
Zn30         O35   1.941       .  S
O31          C42   1.274       .  A
O31         Cd36   2.082       .  S
Cd32         O34   2.044       .  S
Cd32        O651   2.001       .  S
Cd33         O37   2.034       .  S
Cd33         O46   2.083       .  S
Cd33         O35   1.988       .  S
O34          C44   1.270       .  A
O35        Cd648   1.997   1_455  S
O35        Cd652   1.987   1_455  S
Cd36         O38   2.056       .  S
Cd36        O651   1.994       .  S
O37         C660   1.273   1_455  A
O38         C641   1.277       .  A
C39          O43   1.275       .  A
C39         C281   1.474       .  S
C40         O645   1.271   1_455  A
C40         C276   1.438       .  S
C42         C277   1.476       .  S
C44         O653   1.275       .  A
C44         C306   1.459       .  S
C45         O662   1.274       .  A
C45         C272   1.442       .  S
O46         C661   1.274       .  A
O47          C63   1.275   1_554  A
O47         Zn53   2.039       .  S
C48          O64   1.274       .  A
C48          O61   1.270       .  A
C48         C265   1.453       .  S
O49         C370   1.272       .  A
O49         Cd56   2.063       .  S
O50         C376   1.272       .  A
O50         Cd59   2.069       .  S
O51          C65   1.272       .  A
O51         Cd55   2.069       .  S
O52         C371   1.269       .  A
O52         Cd55   2.053       .  S
Zn53         O64   2.000       .  S
Zn53         O66   2.032       .  S
Zn53         O58   1.941       .  S
O54         C373   1.273   1_554  A
O54         Cd59   2.050       .  S
Cd55         O57   2.040       .  S
Cd55        O366   1.990       .  S
Cd56         O60   2.041       .  S
Cd56         O69   2.064       .  S
Cd56        O366   1.990       .  S
O57          C67   1.272       .  A
O58         Cd59   1.991       .  S
O58        Cd363   1.996   1_554  S
O58        Cd364   1.995   1_554  S
Cd59         O61   2.041       .  S
O60          C67   1.270       .  A
C62          O66   1.274       .  A
C62         O357   1.275   1_554  A
C62         C293   1.482       .  S
C63         O360   1.272       .  A
C63         C257   1.439       .  S
C65         O362   1.276       .  A
C65         C297   1.476       .  S
C67         C261   1.450       .  S
C68          O69   1.272       .  A
C68         O358   1.274       .  A
C68         C256   1.438       .  S
O70          C86   1.272       .  A
O70         Zn76   2.020       .  S
C71          O87   1.273       .  A
C71          O84   1.270       .  A
C71         C262   1.457       .  S
O72          C85   1.275       .  A
O72         Cd79   2.072       .  S
O73          C91   1.271       .  A
O73         Cd82   2.065       .  S
O74          C88   1.275       .  A
O74         Cd78   2.083       .  S
O75          C86   1.274       .  A
O75         Cd78   2.083       .  S
Zn76         O87   2.011       .  S
Zn76         O89   2.027       .  S
Zn76         O81   1.948       .  S
O77          C88   1.271       .  A
O77         Cd82   2.062       .  S
Cd78         O80   2.039       .  S
Cd78         O81   1.994       .  S
Cd79         O83   2.062       .  S
Cd79         O92   2.089       .  S
Cd79         O81   2.000       .  S
O80          C90   1.274       .  A
O81         Cd82   1.980       .  S
Cd82         O84   2.015       .  S
O83          C90   1.274       .  A
C85          O89   1.274       .  A
C85         C278   1.474       .  S
C86         C249   1.440       .  S
C88         C282   1.472       .  S
C90         C266   1.459       .  S
C91          O92   1.275       .  A
C91         C245   1.440       .  S
N93          C98   1.354       .  A
N93          C97   1.362       .  A
N93         H125   1.040       .  S
N94         C101   1.358       .  A
N94         C102   1.353       .  A
N95         C100   1.361       .  A
N95          C99   1.352       .  A
N95         H126   1.040       .  S
N96         C103   1.353       .  A
N96         C104   1.359       .  A
C97         C105   1.385       .  A
C97         C113   1.425       .  A
C98         C106   1.388       .  A
C98         C422   1.420   1_554  A
C99         C107   1.388       .  A
C99         C116   1.417       .  A
C100        C115   1.424   1_545  A
C100        C108   1.386       .  A
C101        C113   1.419   1_545  A
C101        C109   1.385       .  A
C102        C110   1.387       .  A
C102        C424   1.416   1_554  A
C103        C111   1.388       .  A
C103        C114   1.417       .  A
C104        C112   1.385       .  A
C104        C115   1.420       .  A
C105        C106   1.379       .  A
C105        H117   1.080       .  S
C106        H118   1.082       .  S
C107        C108   1.378       .  A
C107        H119   1.082       .  S
C108        H120   1.080       .  S
C109        C110   1.372       .  A
C109        H121   1.079       .  S
C110        H122   1.082       .  S
C111        C112   1.370       .  A
C111        H123   1.082       .  S
C112        H124   1.079       .  S
C113        C241   1.517   1_565  S
C114        C600   1.452       .  S
C114        C406   1.419       .  A
C115        C237   1.515       .  S
C116        C285   1.452       .  S
C116        C410   1.418       .  A
N127        C132   1.352       .  A
N127        C131   1.361       .  A
N127        H159   1.040   1_655  S
N128        C135   1.360       .  A
N128        C136   1.354   1_655  A
N129        C134   1.363       .  A
N129        C133   1.353       .  A
N129        H160   1.040   1_655  S
N130        C137   1.354       .  A
N130        C138   1.360       .  A
C131        C139   1.386       .  A
C131        C147   1.423   1_565  A
C132        C148   1.416       .  A
C132        C140   1.388       .  A
C133        C141   1.387       .  A
C133        C150   1.418       .  A
C134        C149   1.426   1_545  A
C134        C142   1.386       .  A
C135        C147   1.422       .  A
C135        C143   1.385   1_655  A
C136        C150   1.419   1_455  A
C136        C144   1.388       .  A
C137        C145   1.387   1_655  A
C137        C148   1.418       .  A
C138        C146   1.386   1_655  A
C138        C149   1.423       .  A
C139        C140   1.376       .  A
C139        H151   1.081       .  S
C140        H152   1.082       .  S
C141        C142   1.378       .  A
C141        H153   1.082       .  S
C142        H154   1.079       .  S
C143        C144   1.373       .  A
C143        H155   1.080       .  S
C144        H156   1.082       .  S
C145        C146   1.373       .  A
C145        H157   1.082       .  S
C146        H158   1.081       .  S
C147        C238   1.516       .  S
C148        C273   1.453       .  S
C149        C242   1.522       .  S
C150        C269   1.454   1_655  S
N161        C166   1.362       .  A
N161        C165   1.354       .  A
N161        H193   1.037       .  S
N162        C169   1.354       .  A
N162        C170   1.360       .  A
N163        C168   1.353       .  A
N163        C167   1.362       .  A
N163        H194   1.039       .  S
N164        C171   1.361       .  A
N164        C172   1.354       .  A
C165        C173   1.388       .  A
C165        C489   1.421       .  A
C166        C182   1.426       .  A
C166        C174   1.386       .  A
C167        C175   1.385       .  A
C167        C184   1.424       .  A
C168        C183   1.419       .  A
C168        C176   1.389       .  A
C169        C181   1.420   1_554  A
C169        C177   1.388       .  A
C170        C184   1.422   1_565  A
C170        C178   1.385       .  A
C171        C179   1.384       .  A
C171        C182   1.424   1_545  A
C172        C180   1.389       .  A
C172        C491   1.423       .  A
C173        C174   1.376       .  A
C173        H185   1.082       .  S
C174        H186   1.079       .  S
C175        C176   1.375       .  A
C175        H187   1.080       .  S
C176        H188   1.082       .  S
C177        C178   1.370       .  A
C177        H189   1.082       .  S
C178        H190   1.080       .  S
C179        C180   1.374       .  A
C179        H191   1.081       .  S
C180        H192   1.082       .  S
C181        C260   1.454       .  S
C181        C473   1.420       .  A
C182        C229   1.517       .  S
C183        C253   1.451       .  S
C183        C480   1.419   1_554  A
C184        C233   1.517   1_545  S
N195        C200   1.354       .  A
N195        C199   1.362       .  A
N195        H227   1.040       .  S
N196        C203   1.359       .  A
N196        C204   1.353       .  A
N197        C202   1.363       .  A
N197        C201   1.355       .  A
N197        H228   1.038       .  S
N198        C205   1.354       .  A
N198        C206   1.361       .  A
C199        C207   1.385       .  A
C199        C215   1.424   1_565  A
C200        C216   1.421       .  A
C200        C208   1.389       .  A
C201        C209   1.387       .  A
C201        C218   1.421       .  A
C202        C217   1.428       .  A
C202        C210   1.388       .  A
C203        C215   1.419       .  A
C203        C211   1.385       .  A
C204        C218   1.418       .  A
C204        C212   1.388       .  A
C205        C213   1.387       .  A
C205        C216   1.422       .  A
C206        C214   1.384       .  A
C206        C217   1.427   1_565  A
C207        C208   1.376       .  A
C207        H219   1.080       .  S
C208        H220   1.082       .  S
C209        C210   1.377       .  A
C209        H221   1.082       .  S
C210        H222   1.081       .  S
C211        C212   1.371       .  A
C211        H223   1.081       .  S
C212        H224   1.082       .  S
C213        C214   1.374       .  A
C213        H225   1.082       .  S
C214        H226   1.077       .  S
C215        C234   1.517       .  S
C216        C252   1.456       .  S
C217        C230   1.520       .  S
C218        C248   1.456       .  S
C229        C230   1.357   1_565  D
C229        H231   1.086       .  S
C230        H232   1.086       .  S
C233        C234   1.356   1_565  D
C233        H235   1.086       .  S
C234        H236   1.086       .  S
C237        C854   1.355   1_565  D
C237        H855   1.086       .  S
C238        C853   1.359   1_645  D
C238        H856   1.086       .  S
H239        C853   1.086       .  S
H240        C854   1.086       .  S
C241        C858   1.356   1_545  D
C241        H859   1.086       .  S
C242        C857   1.358   1_565  D
C242        H860   1.086       .  S
H243        C857   1.086   1_455  S
H244        C858   1.086       .  S
C245        C246   1.209       .  T
C246        C247   1.416       .  S
C247        C248   1.209       .  T
C249        C250   1.209       .  T
C250        C251   1.417       .  S
C251        C252   1.209       .  T
C253        C562   1.206       .  T
C254        C561   1.208       .  T
C254        C255   1.414       .  S
C255        C256   1.207       .  T
C257        C258   1.208       .  T
C258        C259   1.415       .  S
C259        C260   1.208       .  T
C261        C262   1.338       .  D
C261        H263   1.087       .  S
C262        H264   1.087       .  S
C265        C266   1.337       .  D
C265        H267   1.087       .  S
C266        H268   1.088       .  S
C269        C270   1.208       .  T
C270        C887   1.416       .  S
C271        C272   1.210       .  T
C271        C886   1.418       .  S
C273        C274   1.207       .  T
C274        C275   1.414   1_655  S
C275        C276   1.207       .  T
C277        C278   1.344       .  D
C277        H279   1.087       .  S
C278        H280   1.087       .  S
C281        C282   1.340       .  D
C281        H283   1.087       .  S
C282        H284   1.087       .  S
C285        C286   1.207       .  T
C286        C287   1.413       .  S
C287        C288   1.207       .  T
C289        C906   1.209       .  T
C290        C905   1.209       .  T
C290        C291   1.416       .  S
C291        C292   1.209       .  T
C292        C422   1.455   1_554  S
C293        C602   1.345   1_554  D
C293        H295   1.087       .  S
C294        C601   1.343       .  D
C294        H296   1.087       .  S
C297        C606   1.341       .  D
C297        H607   1.087       .  S
C298        C605   1.346       .  D
C298        H608   1.087   1_556  S
H299        C605   1.086       .  S
H300        C606   1.087       .  S
C301        C918   1.336       .  D
C301        H303   1.087       .  S
C302        C917   1.337   1_455  D
C302        H304   1.087       .  S
C305        C922   1.337   1_455  D
C305        H307   1.087       .  S
C306        C921   1.336       .  D
C306        H308   1.087       .  S
O309        C325   1.270       .  A
O309       Zn315   1.977       .  S
C310        O326   1.272       .  A
C310        O631   1.270   1_556  A
C310        C596   1.435       .  S
O311       Cd318   2.060       .  S
O312        C330   1.267   1_455  A
O312       Cd321   2.018       .  S
O313       Cd317   2.077       .  S
O314        C941   1.275   1_455  A
O314       Cd317   2.039       .  S
Zn315       O326   2.026       .  S
Zn315       O328   2.014       .  S
Zn315       O320   1.938       .  S
O316        C327   1.269       .  A
O316       Cd321   2.042       .  S
Cd317       O319   2.081       .  S
Cd317       O936   1.994   1_456  S
Cd318       O322   2.057       .  S
Cd318       O331   2.037       .  S
O320       Cd933   1.998       .  S
O320       Cd629   1.988   1_556  S
Cd321       O323   2.048       .  S
Cd321       O628   1.985   1_455  S
O322        C945   1.271       .  A
O323        C618   1.268   1_455  A
C324        O328   1.273       .  A
C324        C602   1.479       .  S
C325        O930   1.275       .  A
C325        C609   1.455       .  S
C327        C606   1.471       .  S
C329        O938   1.274       .  A
C329        C597   1.444   1_655  S
C330        O947   1.275       .  A
C330        C613   1.452   1_655  S
O331        C946   1.269       .  A
O332        C348   1.275       .  A
O332       Zn338   2.046       .  S
C333        O349   1.273       .  A
C333        O962   1.275   1_455  A
C333        C610   1.458       .  S
O334        C347   1.273       .  A
O334       Cd341   2.071       .  S
O335        C353   1.272       .  A
O335       Cd344   2.071       .  S
O336        C350   1.274       .  A
O336       Cd340   2.075       .  S
O337        C964   1.271       .  A
O337       Cd340   2.064       .  S
Zn338       O349   1.994       .  S
Zn338       O351   2.032       .  S
Zn338       O343   1.936       .  S
O339        C350   1.272       .  A
O339       Cd344   2.071       .  S
Cd340       O342   2.050       .  S
Cd340       O959   1.999       .  S
Cd341       O345   2.036       .  S
Cd341       O354   2.087       .  S
Cd341       O343   1.984       .  S
O342        C352   1.275       .  A
O343       Cd956   1.995   1_455  S
O343       Cd960   1.984   1_455  S
Cd344       O346   2.039       .  S
Cd344       O959   1.989       .  S
O345        C968   1.275   1_455  A
O346        C949   1.275       .  A
C347        O351   1.276       .  A
C347        C589   1.475       .  S
C348        O953   1.271   1_455  A
C348        C584   1.440       .  S
C350        C585   1.474       .  S
C352        O961   1.268       .  A
C352        C614   1.452       .  S
C353        O970   1.273       .  A
C353        C580   1.439       .  S
O354        C969   1.274       .  A
O355        C371   1.274       .  A
O355       Zn361   2.035       .  S
C356        O372   1.276       .  A
C356        O369   1.273       .  A
C356        C573   1.459       .  S
O357       Cd364   2.072       .  S
O358       Cd367   2.084       .  S
O359        C373   1.275       .  A
O359       Cd363   2.086       .  S
O360       Cd363   2.064       .  S
Zn361       O372   2.007       .  S
Zn361       O374   2.029       .  S
Zn361       O366   1.938       .  S
O362       Cd367   2.065       .  S
Cd363       O365   2.051       .  S
Cd364       O368   2.040       .  S
Cd364       O377   2.067       .  S
O365        C375   1.275       .  A
O366       Cd367   1.989       .  S
Cd367       O369   2.052       .  S
O368        C375   1.270       .  A
C370        O374   1.276       .  A
C370        C601   1.477       .  S
C371        C565   1.435       .  S
C373        C605   1.478       .  S
C375        C569   1.452       .  S
C376        O377   1.272   1_554  A
C376        C564   1.434       .  S
O378        C394   1.271       .  A
O378       Zn384   2.010       .  S
C379        O395   1.271       .  A
C379        O392   1.272       .  A
C379        C570   1.456       .  S
O380        C393   1.275       .  A
O380       Cd387   2.072       .  S
O381        C399   1.273       .  A
O381       Cd390   2.072       .  S
O382        C396   1.275       .  A
O382       Cd386   2.081       .  S
O383        C394   1.274       .  A
O383       Cd386   2.088       .  S
Zn384       O395   2.003       .  S
Zn384       O397   2.028       .  S
Zn384       O389   1.947       .  S
O385        C396   1.272       .  A
O385       Cd390   2.068       .  S
Cd386       O388   2.047       .  S
Cd386       O389   1.997       .  S
Cd387       O391   2.064       .  S
Cd387       O400   2.086       .  S
Cd387       O389   1.999       .  S
O388        C398   1.275       .  A
O389       Cd390   1.986       .  S
Cd390       O392   2.030       .  S
O391        C398   1.274       .  A
C393        O397   1.274       .  A
C393        C586   1.474       .  S
C394        C557   1.440       .  S
C396        C590   1.475       .  S
C398        C574   1.462       .  S
C399        O400   1.274       .  A
C399        C553   1.441       .  S
N401        C406   1.354       .  A
N401        C405   1.362       .  A
N401        H433   1.040       .  S
N402        C409   1.359       .  A
N402        C410   1.354       .  A
N403        C408   1.359       .  A
N403        C407   1.351       .  A
N403        H434   1.040       .  S
N404        C411   1.353       .  A
N404        C412   1.360       .  A
C405        C413   1.385       .  A
C405        C421   1.425   1_565  A
C406        C414   1.387       .  A
C407        C415   1.387       .  A
C407        C424   1.414       .  A
C408        C423   1.421   1_545  A
C408        C416   1.386       .  A
C409        C421   1.421       .  A
C409        C417   1.385       .  A
C410        C418   1.388       .  A
C411        C419   1.388       .  A
C411        C422   1.419       .  A
C412        C420   1.385       .  A
C412        C423   1.421       .  A
C413        C414   1.377       .  A
C413        H425   1.080       .  S
C414        H426   1.082       .  S
C415        C416   1.377       .  A
C415        H427   1.082       .  S
C416        H428   1.081       .  S
C417        C418   1.371       .  A
C417        H429   1.079       .  S
C418        H430   1.082       .  S
C419        C420   1.374       .  A
C419        H431   1.082       .  S
C420        H432   1.081       .  S
C421        C549   1.518       .  S
C423        C545   1.515       .  S
C424        C593   1.450       .  S
N435        C440   1.353   1_455  A
N435        C439   1.361   1_455  A
N435        H467   1.040       .  S
N436        C443   1.359       .  A
N436        C444   1.354       .  A
N437        C442   1.361   1_455  A
N437        C441   1.352       .  A
N437        H468   1.041       .  S
N438        C445   1.354       .  A
N438        C446   1.358       .  A
C439        C447   1.386       .  A
C439        C455   1.425   1_565  A
C440        C456   1.417   1_655  A
C440        C448   1.387       .  A
C441        C449   1.386   1_455  A
C441        C458   1.415       .  A
C442        C457   1.424   1_645  A
C442        C450   1.386       .  A
C443        C455   1.421   1_455  A
C443        C451   1.385       .  A
C444        C458   1.417       .  A
C444        C452   1.387       .  A
C445        C453   1.388       .  A
C445        C456   1.418       .  A
C446        C454   1.385       .  A
C446        C457   1.420       .  A
C447        C448   1.378       .  A
C447        H459   1.080       .  S
C448        H460   1.082       .  S
C449        C450   1.378       .  A
C449        H461   1.082       .  S
C450        H462   1.078       .  S
C451        C452   1.373       .  A
C451        H463   1.080       .  S
C452        H464   1.082       .  S
C453        C454   1.374       .  A
C453        H465   1.082       .  S
C454        H466   1.080       .  S
C455        C546   1.517       .  S
C456        C581   1.455       .  S
C457        C550   1.516   1_455  S
C458        C577   1.454       .  S
N469        C474   1.363       .  A
N469        C473   1.354       .  A
N469        H501   1.039       .  S
N470        C477   1.353       .  A
N470        C478   1.359       .  A
N471        C476   1.354       .  A
N471        C475   1.363       .  A
N471        H502   1.037       .  S
N472        C479   1.359       .  A
N472        C480   1.353       .  A
C473        C481   1.388       .  A
C474        C490   1.426   1_565  A
C474        C482   1.385       .  A
C475        C483   1.385       .  A
C475        C492   1.426   1_545  A
C476        C491   1.423       .  A
C476        C484   1.389       .  A
C477        C489   1.419       .  A
C477        C485   1.388       .  A
C478        C492   1.421       .  A
C478        C486   1.385       .  A
C479        C487   1.385       .  A
C479        C490   1.422       .  A
C480        C488   1.388       .  A
C481        C482   1.377       .  A
C481        H493   1.082       .  S
C482        H494   1.079       .  S
C483        C484   1.375       .  A
C483        H495   1.081       .  S
C484        H496   1.082       .  S
C485        C486   1.369       .  A
C485        H497   1.082       .  S
C486        H498   1.079       .  S
C487        C488   1.372       .  A
C487        H499   1.081       .  S
C488        H500   1.082       .  S
C489        C568   1.452       .  S
C490        C537   1.519       .  S
C491        C561   1.454       .  S
C492        C541   1.515       .  S
N503        C508   1.354       .  A
N503        C507   1.360       .  A
N503        H535   1.040       .  S
N504        C511   1.359       .  A
N504        C512   1.354       .  A
N505        C510   1.362       .  A
N505        C509   1.355       .  A
N505        H536   1.039       .  S
N506        C513   1.355       .  A
N506        C514   1.359       .  A
C507        C515   1.385       .  A
C507        C523   1.422   1_565  A
C508        C524   1.417       .  A
C508        C516   1.388       .  A
C509        C517   1.388       .  A
C509        C526   1.422       .  A
C510        C525   1.427   1_545  A
C510        C518   1.386       .  A
C511        C523   1.420       .  A
C511        C519   1.385       .  A
C512        C526   1.420       .  A
C512        C520   1.388       .  A
C513        C521   1.386       .  A
C513        C524   1.418       .  A
C514        C522   1.386       .  A
C514        C525   1.423       .  A
C515        C516   1.375       .  A
C515        H527   1.080       .  S
C516        H528   1.082       .  S
C517        C518   1.378       .  A
C517        H529   1.082       .  S
C518        H530   1.081       .  S
C519        C520   1.373       .  A
C519        H531   1.081       .  S
C520        H532   1.082       .  S
C521        C522   1.372       .  A
C521        H533   1.082       .  S
C522        H534   1.079       .  S
C523        C542   1.516       .  S
C524        C560   1.455       .  S
C525        C538   1.517       .  S
C526        C556   1.457       .  S
C537        C538   1.356   1_545  D
C537        H539   1.086       .  S
C538        H540   1.086       .  S
C541        C542   1.356   1_565  D
C541        H543   1.086       .  S
C542        H544   1.086       .  S
C545       C1162   1.358   1_565  D
C545       H1163   1.086       .  S
C546       C1161   1.358   1_645  D
C546       H1164   1.086       .  S
H547       C1161   1.086       .  S
H548       C1162   1.086       .  S
C549       C1166   1.357   1_545  D
C549       H1167   1.086       .  S
C550       C1165   1.356   1_665  D
C550       H1168   1.086       .  S
H551       C1165   1.086       .  S
H552       C1166   1.086       .  S
C553        C554   1.209       .  T
C554        C555   1.418       .  S
C555        C556   1.210       .  T
C557        C558   1.208       .  T
C558        C559   1.416       .  S
C559        C560   1.209       .  T
C562        C563   1.411       .  S
C563        C564   1.205       .  T
C565        C566   1.205       .  T
C566        C567   1.411       .  S
C567        C568   1.206       .  T
C569        C570   1.335       .  D
C569        H571   1.087       .  S
C570        H572   1.087       .  S
C573        C574   1.339       .  D
C573        H575   1.087       .  S
C574        H576   1.087       .  S
C577        C578   1.208       .  T
C578       C1195   1.416       .  S
C579        C580   1.208       .  T
C579       C1194   1.416       .  S
C581        C582   1.209       .  T
C582        C583   1.417       .  S
C583        C584   1.209       .  T
C585        C586   1.342       .  D
C585        H587   1.087       .  S
C586        H588   1.087       .  S
C589        C590   1.341       .  D
C589        H591   1.087       .  S
C590        H592   1.087       .  S
C593        C594   1.206       .  T
C594        C595   1.411       .  S
C595        C596   1.205       .  T
C597       C1214   1.211       .  T
C598       C1213   1.206       .  T
C598        C599   1.413       .  S
C599        C600   1.207       .  T
C601        H603   1.087       .  S
C602        H604   1.087       .  S
C609       C1226   1.337       .  D
C609        H611   1.087       .  S
C610       C1225   1.340   1_455  D
C610        H612   1.087       .  S
C613       C1230   1.334   1_455  D
C613        H615   1.088       .  S
C614       C1229   1.335       .  D
C614        H616   1.087       .  S
O617        C633   1.271       .  A
O617       Zn623   1.985       .  S
C618        O634   1.272       .  A
C618        C904   1.434       .  S
O619        C940   1.273       .  A
O619       Cd626   2.068       .  S
O620        C638   1.269       .  A
O620       Cd629   2.023       .  S
O621        C943   1.277       .  A
O621       Cd625   2.097       .  S
O622       Cd625   2.055       .  S
Zn623       O634   2.031       .  S
Zn623       O636   2.010       .  S
Zn623       O628   1.940       .  S
O624        C635   1.271   1_554  A
O624       Cd629   2.057       .  S
Cd625       O627   2.087       .  S
Cd626       O630   2.077       .  S
Cd626       O639   2.042       .  S
Cd626       O936   1.991       .  S
O627        C945   1.275       .  A
O628       Cd934   1.995       .  S
Cd629       O631   2.058       .  S
C632        O927   1.274       .  A
C632        O636   1.274       .  A
C632        C910   1.478       .  S
C633        C917   1.459       .  S
C635        O929   1.275       .  A
C635        C914   1.475   1_556  S
C637        O935   1.273       .  A
C637        C905   1.440   1_556  S
C638        C921   1.453       .  S
O640        C656   1.275       .  A
O640       Zn646   2.042       .  S
C641        O657   1.270       .  A
C641        C918   1.458       .  S
O642        C655   1.274       .  A
O642       Cd649   2.078       .  S
O643        C661   1.272   1_655  A
O643       Cd652   2.069       .  S
O644        C658   1.274       .  A
O644       Cd648   2.067       .  S
O645       Cd648   2.060       .  S
Zn646       O657   1.978       .  S
Zn646       O659   2.029       .  S
Zn646       O651   1.941       .  S
O647        C658   1.273       .  A
O647       Cd652   2.074       .  S
Cd648       O650   2.042       .  S
Cd649       O653   2.035       .  S
Cd649       O662   2.084       .  S
Cd649       O651   1.987       .  S
O650        C660   1.270       .  A
Cd652       O654   2.048       .  S
C655        O659   1.275       .  A
C655        C897   1.476       .  S
C656        C892   1.438       .  S
C658        C893   1.474       .  S
C660        C922   1.457       .  S
C661        C888   1.439       .  S
O663        C679   1.278       .  A
O663       Zn669   2.054       .  S
C664        O680   1.277       .  A
C664        O677   1.271       .  A
C664        C881   1.456       .  S
O665        C986   1.272       .  A
O665       Cd672   2.064       .  S
O666        C992   1.272   1_554  A
O666       Cd675   2.072       .  S
O667        C681   1.275       .  A
O667       Cd671   2.083       .  S
O668        C987   1.272       .  A
O668       Cd671   2.066       .  S
Zn669       O680   2.024       .  S
Zn669       O682   2.051       .  S
Zn669       O674   1.949       .  S
O670        C989   1.274   1_554  A
O670       Cd675   2.063       .  S
Cd671       O673   2.043       .  S
Cd671       O982   1.990       .  S
Cd672       O676   2.046       .  S
Cd672       O685   2.066       .  S
Cd672       O982   1.995       .  S
O673        C683   1.274       .  A
O674       Cd979   1.997   1_554  S
O674       Cd980   1.980   1_554  S
O674       Cd675   1.985       .  S
Cd675       O677   2.037       .  S
O676        C683   1.271       .  A
C678        O973   1.270       .  A
C678        O682   1.278   1_556  A
C678        C909   1.477       .  S
C679        O976   1.271   1_554  A
C679        C873   1.438       .  S
C681        O978   1.277       .  A
C681        C913   1.485       .  S
C683        C877   1.454       .  S
C684        O974   1.274       .  A
C684        O685   1.272       .  A
C684        C872   1.440       .  S
O686        C702   1.270       .  A
O686       Zn692   2.007       .  S
C687        O703   1.271       .  A
C687        O700   1.273       .  A
C687        C878   1.455       .  S
O688        C701   1.276       .  A
O688       Cd695   2.080       .  S
O689        C707   1.274       .  A
O689       Cd698   2.076       .  S
O690        C704   1.275       .  A
O690       Cd694   2.076       .  S
O691        C702   1.271       .  A
O691       Cd694   2.073       .  S
Zn692       O703   1.995       .  S
Zn692       O705   2.015       .  S
Zn692       O697   1.942       .  S
O693        C704   1.274       .  A
O693       Cd698   2.080       .  S
Cd694       O696   2.034       .  S
Cd694       O697   1.990       .  S
Cd695       O699   2.078       .  S
Cd695       O708   2.097       .  S
Cd695       O697   2.003       .  S
O696        C706   1.274       .  A
O697       Cd698   1.985       .  S
Cd698       O700   2.037       .  S
O699        C706   1.276       .  A
C701        O705   1.272       .  A
C701        C894   1.473       .  S
C702        C865   1.434       .  S
C704        C898   1.477       .  S
C706        C882   1.467       .  S
C707        O708   1.277       .  A
C707        C861   1.446       .  S
N709        C714   1.353   1_655  A
N709        C713   1.362   1_655  A
N709        H741   1.041       .  S
N710        C717   1.359       .  A
N710        C718   1.353       .  A
N711        C716   1.360   1_655  A
N711        C715   1.352   1_655  A
N711        H742   1.041       .  S
N712        C719   1.354       .  A
N712        C720   1.360       .  A
C713        C721   1.386       .  A
C713        C729   1.425   1_465  A
C714       C1038   1.419       .  A
C714        C722   1.388       .  A
C715        C723   1.387       .  A
C715        C732   1.413   1_455  A
C716        C731   1.422   1_545  A
C716        C724   1.386       .  A
C717        C729   1.421       .  A
C717        C725   1.385       .  A
C718       C1040   1.417   1_554  A
C718        C726   1.388       .  A
C719        C727   1.388   1_455  A
C719        C730   1.420       .  A
C720        C728   1.385   1_455  A
C720        C731   1.422       .  A
C721        C722   1.379       .  A
C721        H733   1.081       .  S
C722        H734   1.082       .  S
C723        C724   1.376       .  A
C723        H735   1.082       .  S
C724        H736   1.080       .  S
C725        C726   1.375       .  A
C725        H737   1.080       .  S
C726        H738   1.082       .  S
C727        C728   1.374       .  A
C727        H739   1.082       .  S
C728        H740   1.081       .  S
C729        C857   1.518       .  S
C730       C1216   1.457       .  S
C730       C1022   1.419       .  A
C731        C853   1.517       .  S
C732        C901   1.450       .  S
C732       C1026   1.415       .  A
N743        C748   1.353       .  A
N743        C747   1.360       .  A
N743        H775   1.040       .  S
N744        C751   1.359       .  A
N744        C752   1.353       .  A
N745        C750   1.362       .  A
N745        C749   1.355       .  A
N745        H776   1.040       .  S
N746        C753   1.354       .  A
N746        C754   1.359       .  A
C747        C755   1.386       .  A
C747        C763   1.423   1_565  A
C748        C764   1.415       .  A
C748        C756   1.387       .  A
C749        C757   1.387       .  A
C749        C766   1.420       .  A
C750        C765   1.427   1_545  A
C750        C758   1.385       .  A
C751        C763   1.420       .  A
C751        C759   1.384       .  A
C752        C766   1.419       .  A
C752        C760   1.388       .  A
C753        C761   1.387       .  A
C753        C764   1.418       .  A
C754        C762   1.386       .  A
C754        C765   1.422       .  A
C755        C756   1.377       .  A
C755        H767   1.080       .  S
C756        H768   1.082       .  S
C757        C758   1.377       .  A
C757        H769   1.082       .  S
C758        H770   1.079       .  S
C759        C760   1.372       .  A
C759        H771   1.080       .  S
C760        H772   1.082       .  S
C761        C762   1.372       .  A
C761        H773   1.082       .  S
C762        H774   1.080       .  S
C763        C854   1.515       .  S
C764        C889   1.453       .  S
C765        C858   1.519       .  S
C766        C885   1.457       .  S
N777        C782   1.363       .  A
N777        C781   1.356       .  A
N777        H809   1.040       .  S
N778        C785   1.353       .  A
N778        C786   1.360       .  A
N779        C784   1.352       .  A
N779        C783   1.360       .  A
N779        H810   1.038       .  S
N780        C787   1.359       .  A
N780        C788   1.355       .  A
C781        C789   1.387       .  A
C781       C1105   1.422       .  A
C782        C798   1.428   1_565  A
C782        C790   1.385       .  A
C783        C791   1.387       .  A
C783        C800   1.422       .  A
C784        C799   1.418       .  A
C784        C792   1.388       .  A
C785        C797   1.421       .  A
C785        C793   1.389       .  A
C786        C800   1.423   1_565  A
C786        C794   1.383       .  A
C787        C795   1.386       .  A
C787        C798   1.422       .  A
C788        C796   1.387       .  A
C788       C1107   1.418       .  A
C789        C790   1.379       .  A
C789        H801   1.082       .  S
C790        H802   1.078       .  S
C791        C792   1.375       .  A
C791        H803   1.081       .  S
C792        H804   1.082       .  S
C793        C794   1.371       .  A
C793        H805   1.082       .  S
C794        H806   1.078       .  S
C795        C796   1.372       .  A
C795        H807   1.081       .  S
C796        H808   1.082       .  S
C797        C876   1.455       .  S
C797       C1089   1.423   1_554  A
C798        C845   1.521       .  S
C799        C869   1.451       .  S
C799       C1096   1.417   1_554  A
C800        C849   1.513       .  S
N811        C816   1.352       .  A
N811        C815   1.359       .  A
N811        H843   1.039       .  S
N812        C819   1.361       .  A
N812        C820   1.353       .  A
N813        C818   1.365       .  A
N813        C817   1.357       .  A
N813        H844   1.038       .  S
N814        C821   1.354       .  A
N814        C822   1.357       .  A
C815        C823   1.387       .  A
C815        C831   1.420   1_565  A
C816        C832   1.414       .  A
C816        C824   1.387       .  A
C817        C825   1.388       .  A
C817        C834   1.427       .  A
C818        C833   1.430   1_545  A
C818        C826   1.385       .  A
C819        C831   1.422       .  A
C819        C827   1.384       .  A
C820        C834   1.423       .  A
C820        C828   1.390       .  A
C821        C829   1.387       .  A
C821        C832   1.415       .  A
C822        C830   1.385       .  A
C822        C833   1.420       .  A
C823        C824   1.374       .  A
C823        H835   1.080       .  S
C824        H836   1.082       .  S
C825        C826   1.380       .  A
C825        H837   1.082       .  S
C826        H838   1.080       .  S
C827        C828   1.375       .  A
C827        H839   1.080       .  S
C828        H840   1.082       .  S
C829        C830   1.370       .  A
C829        H841   1.082       .  S
C830        H842   1.078       .  S
C831        C850   1.511       .  S
C832        C868   1.450       .  S
C833        C846   1.519       .  S
C834        C864   1.461       .  S
C845        C846   1.355   1_545  D
C845        H847   1.086       .  S
C846        H848   1.086       .  S
C849        C850   1.354       .  D
C849        H851   1.086       .  S
C850        H852   1.086   1_545  S
C861        C862   1.212       .  T
C862        C863   1.422       .  S
C863        C864   1.212       .  T
C865        C866   1.205       .  T
C866        C867   1.410       .  S
C867        C868   1.205       .  T
C869       C1178   1.205       .  T
C870       C1177   1.209       .  T
C870        C871   1.416       .  S
C871        C872   1.208       .  T
C873        C874   1.208       .  T
C874        C875   1.415       .  S
C875        C876   1.208       .  T
C877        C878   1.336       .  D
C877        H879   1.087       .  S
C878        H880   1.087       .  S
C881        C882   1.339       .  D
C881        H883   1.087       .  S
C882        H884   1.087       .  S
C885        C886   1.210       .  T
C887        C888   1.208       .  T
C889        C890   1.208       .  T
C890        C891   1.415       .  S
C891        C892   1.207       .  T
C893        C894   1.342       .  D
C893        H895   1.087       .  S
C894        H896   1.087       .  S
C897        C898   1.344       .  D
C897        H899   1.087       .  S
C898        H900   1.087       .  S
C901        C902   1.206       .  T
C902        C903   1.411       .  S
C903        C904   1.205       .  T
C906        C907   1.417       .  S
C907        C908   1.209       .  T
C908       C1038   1.455       .  S
C909       C1218   1.342   1_556  D
C909        H911   1.087       .  S
C910       C1217   1.345       .  D
C910        H912   1.087       .  S
C913       C1222   1.346       .  D
C913       H1223   1.086       .  S
C914       C1221   1.345   1_554  D
C914       H1224   1.087       .  S
H915       C1221   1.086       .  S
H916       C1222   1.087       .  S
C917        H919   1.087       .  S
C918        H920   1.087       .  S
C921        H923   1.088       .  S
C922        H924   1.087       .  S
O925        C941   1.273       .  A
O925       Zn931   1.999       .  S
C926        O942   1.274       .  A
C926       C1212   1.438       .  S
O927       Cd934   2.079       .  S
O928        C946   1.274       .  A
O928       Cd937   2.035       .  S
O929       Cd933   2.082       .  S
O930       Cd933   2.047       .  S
Zn931       O942   2.041       .  S
Zn931       O944   2.035       .  S
Zn931       O936   1.948   1_556  S
O932        C943   1.272       .  A
O932       Cd937   2.063       .  S
Cd933       O935   2.072       .  S
Cd934       O938   2.083       .  S
Cd934       O947   2.051       .  S
Cd937       O939   2.068       .  S
C940        O944   1.277   1_554  A
C940       C1218   1.480       .  S
C941       C1225   1.460       .  S
C943       C1222   1.481       .  S
C945       C1213   1.436       .  S
C946       C1229   1.457       .  S
O948        C964   1.274       .  A
O948       Zn954   2.034       .  S
C949        O965   1.271       .  A
C949       C1226   1.458       .  S
O950        C963   1.272       .  A
O950       Cd957   2.064       .  S
O951        C969   1.272       .  A
O951       Cd960   2.067   1_455  S
O952        C966   1.274       .  A
O952       Cd956   2.066       .  S
O953       Cd956   2.059       .  S
Zn954       O965   1.989       .  S
Zn954       O967   2.039       .  S
Zn954       O959   1.950       .  S
O955        C966   1.272       .  A
O955       Cd960   2.072       .  S
Cd956       O958   2.035       .  S
Cd957       O961   2.023       .  S
Cd957       O970   2.077       .  S
Cd957       O959   1.992       .  S
O958        C968   1.269       .  A
Cd960       O962   2.044       .  S
C963        O967   1.276       .  A
C963       C1205   1.471       .  S
C964       C1200   1.437       .  S
C966       C1201   1.473       .  S
C968       C1230   1.455       .  S
C969       C1196   1.439       .  S
O971        C987   1.276       .  A
O971       Zn977   2.048       .  S
C972        O988   1.275       .  A
C972        O985   1.273       .  A
C972       C1189   1.456       .  S
O973       Cd980   2.050       .  S
O974       Cd983   2.088       .  S
O975        C989   1.274       .  A
O975       Cd979   2.080       .  S
O976       Cd979   2.052       .  S
Zn977       O988   2.001       .  S
Zn977       O990   2.028       .  S
Zn977       O982   1.946       .  S
O978       Cd983   2.078       .  S
Cd979       O981   2.047       .  S
Cd980       O984   2.026       .  S
Cd980       O993   2.064       .  S
O981        C991   1.270       .  A
O982       Cd983   1.997       .  S
Cd983       O985   2.051       .  S
O984        C991   1.272       .  A
C986        O990   1.275       .  A
C986       C1217   1.475       .  S
C987       C1181   1.443       .  S
C989       C1221   1.479       .  S
C991       C1185   1.456       .  S
C992        O993   1.271       .  A
C992       C1180   1.434   1_556  S
O994       C1010   1.272       .  A
O994      Zn1000   2.021       .  S
C995       O1011   1.274       .  A
C995       O1008   1.267       .  A
C995       C1186   1.445       .  S
O996       C1009   1.275       .  A
O996      Cd1003   2.076       .  S
O997       C1015   1.271       .  A
O997      Cd1006   2.057       .  S
O998       C1012   1.275       .  A
O998      Cd1002   2.078       .  S
O999       C1010   1.273       .  A
O999      Cd1002   2.078       .  S
Zn1000     O1011   2.000       .  S
Zn1000     O1013   2.016       .  S
Zn1000     O1005   1.938       .  S
O1001      C1012   1.273       .  A
O1001     Cd1006   2.071       .  S
Cd1002     O1004   2.035       .  S
Cd1002     O1005   1.986       .  S
Cd1003     O1007   2.069       .  S
Cd1003     O1016   2.091       .  S
Cd1003     O1005   2.002       .  S
O1004      C1014   1.274       .  A
O1005     Cd1006   1.982       .  S
Cd1006     O1008   2.020       .  S
O1007      C1014   1.276       .  A
C1009      O1013   1.272       .  A
C1009      C1202   1.471       .  S
C1010      C1173   1.440       .  S
C1012      C1206   1.476       .  S
C1014      C1190   1.461       .  S
C1015      O1016   1.275       .  A
C1015      C1169   1.438       .  S
N1017      C1022   1.354       .  A
N1017      C1021   1.361       .  A
N1017      H1049   1.040   1_455  S
N1018      C1025   1.358       .  A
N1018      C1026   1.353   1_455  A
N1019      C1024   1.361   1_655  A
N1019      C1023   1.353       .  A
N1019      H1050   1.041       .  S
N1020      C1027   1.354   1_455  A
N1020      C1028   1.359   1_455  A
C1021      C1029   1.386       .  A
C1021      C1037   1.425   1_565  A
C1022      C1030   1.387       .  A
C1023      C1031   1.388   1_655  A
C1023      C1040   1.416       .  A
C1024      C1039   1.422   1_545  A
C1024      C1032   1.385       .  A
C1025      C1037   1.421       .  A
C1025      C1033   1.385   1_455  A
C1026      C1034   1.387       .  A
C1027      C1035   1.388       .  A
C1027      C1038   1.419   1_656  A
C1028      C1036   1.385       .  A
C1028      C1039   1.421   1_655  A
C1029      C1030   1.379       .  A
C1029      H1041   1.080       .  S
C1030      H1042   1.082       .  S
C1031      C1032   1.377       .  A
C1031      H1043   1.082       .  S
C1032      H1044   1.079       .  S
C1033      C1034   1.372       .  A
C1033      H1045   1.079       .  S
C1034      H1046   1.082       .  S
C1035      C1036   1.374       .  A
C1035      H1047   1.082       .  S
C1036      H1048   1.081       .  S
C1037      C1165   1.515       .  S
C1039      C1161   1.517       .  S
C1040      C1209   1.453       .  S
N1051      C1056   1.352       .  A
N1051      C1055   1.361       .  A
N1051      H1083   1.040       .  S
N1052      C1059   1.360       .  A
N1052      C1060   1.354       .  A
N1053      C1058   1.362       .  A
N1053      C1057   1.353       .  A
N1053      H1084   1.040       .  S
N1054      C1061   1.354       .  A
N1054      C1062   1.359       .  A
C1055      C1063   1.386       .  A
C1055      C1071   1.423       .  A
C1056      C1072   1.416       .  A
C1056      C1064   1.387       .  A
C1057      C1065   1.387       .  A
C1057      C1074   1.418       .  A
C1058      C1073   1.426   1_545  A
C1058      C1066   1.385       .  A
C1059      C1071   1.422   1_545  A
C1059      C1067   1.385       .  A
C1060      C1074   1.419       .  A
C1060      C1068   1.388       .  A
C1061      C1069   1.387       .  A
C1061      C1072   1.417       .  A
C1062      C1070   1.385       .  A
C1062      C1073   1.421       .  A
C1063      C1064   1.377       .  A
C1063      H1075   1.080       .  S
C1064      H1076   1.082       .  S
C1065      C1066   1.378       .  A
C1065      H1077   1.082       .  S
C1066      H1078   1.079       .  S
C1067      C1068   1.372       .  A
C1067      H1079   1.081       .  S
C1068      H1080   1.082       .  S
C1069      C1070   1.372       .  A
C1069      H1081   1.082       .  S
C1070      H1082   1.080       .  S
C1071      C1162   1.516   1_565  S
C1072      C1197   1.452       .  S
C1073      C1166   1.518       .  S
C1074      C1193   1.454       .  S
N1085      C1090   1.364       .  A
N1085      C1089   1.355       .  A
N1085      H1117   1.040       .  S
N1086      C1093   1.354       .  A
N1086      C1094   1.359       .  A
N1087      C1092   1.354       .  A
N1087      C1091   1.361       .  A
N1087      H1118   1.040       .  S
N1088      C1095   1.358       .  A
N1088      C1096   1.354       .  A
C1089      C1097   1.388       .  A
C1090      C1106   1.428   1_565  A
C1090      C1098   1.385       .  A
C1091      C1099   1.385       .  A
C1091      C1108   1.423   1_545  A
C1092      C1107   1.417       .  A
C1092      C1100   1.387       .  A
C1093      C1105   1.419       .  A
C1093      C1101   1.389       .  A
C1094      C1108   1.419       .  A
C1094      C1102   1.384       .  A
C1095      C1103   1.386       .  A
C1095      C1106   1.421       .  A
C1096      C1104   1.387       .  A
C1097      C1098   1.378       .  A
C1097      H1109   1.082       .  S
C1098      H1110   1.079       .  S
C1099      C1100   1.376       .  A
C1099      H1111   1.080       .  S
C1100      H1112   1.082       .  S
C1101      C1102   1.371       .  A
C1101      H1113   1.082       .  S
C1102      H1114   1.080       .  S
C1103      C1104   1.371       .  A
C1103      H1115   1.080       .  S
C1104      H1116   1.082       .  S
C1105      C1184   1.458       .  S
C1106      C1153   1.521       .  S
C1107      C1177   1.455       .  S
C1108      C1157   1.514       .  S
N1119      C1124   1.353       .  A
N1119      C1123   1.362       .  A
N1119      H1151   1.040       .  S
N1120      C1127   1.358       .  A
N1120      C1128   1.353       .  A
N1121      C1126   1.362       .  A
N1121      C1125   1.355       .  A
N1121      H1152   1.040       .  S
N1122      C1129   1.355       .  A
N1122      C1130   1.360       .  A
C1123      C1131   1.385       .  A
C1123      C1139   1.423   1_565  A
C1124      C1140   1.418       .  A
C1124      C1132   1.388       .  A
C1125      C1133   1.388       .  A
C1125      C1142   1.420       .  A
C1126      C1141   1.426   1_545  A
C1126      C1134   1.386       .  A
C1127      C1139   1.419       .  A
C1127      C1135   1.385       .  A
C1128      C1142   1.417       .  A
C1128      C1136   1.388       .  A
C1129      C1137   1.387       .  A
C1129      C1140   1.419       .  A
C1130      C1138   1.385       .  A
C1130      C1141   1.422       .  A
C1131      C1132   1.377       .  A
C1131      H1143   1.080       .  S
C1132      H1144   1.082       .  S
C1133      C1134   1.379       .  A
C1133      H1145   1.082       .  S
C1134      H1146   1.080       .  S
C1135      C1136   1.371       .  A
C1135      H1147   1.080       .  S
C1136      H1148   1.082       .  S
C1137      C1138   1.372       .  A
C1137      H1149   1.082       .  S
C1138      H1150   1.080       .  S
C1139      C1158   1.516       .  S
C1140      C1176   1.455       .  S
C1141      C1154   1.519       .  S
C1142      C1172   1.454       .  S
C1153      C1154   1.357   1_545  D
C1153      H1155   1.086       .  S
C1154      H1156   1.086       .  S
C1157      C1158   1.355   1_565  D
C1157      H1159   1.086       .  S
C1158      H1160   1.086       .  S
C1169      C1170   1.207       .  T
C1170      C1171   1.415       .  S
C1171      C1172   1.208       .  T
C1173      C1174   1.208       .  T
C1174      C1175   1.416       .  S
C1175      C1176   1.209       .  T
C1178      C1179   1.411       .  S
C1179      C1180   1.205       .  T
C1181      C1182   1.210       .  T
C1182      C1183   1.420       .  S
C1183      C1184   1.211       .  T
C1185      C1186   1.334       .  D
C1185      H1187   1.088       .  S
C1186      H1188   1.087       .  S
C1189      C1190   1.340       .  D
C1189      H1191   1.087       .  S
C1190      H1192   1.087       .  S
C1193      C1194   1.208       .  T
C1195      C1196   1.208       .  T
C1197      C1198   1.207       .  T
C1198      C1199   1.414       .  S
C1199      C1200   1.207       .  T
C1201      C1202   1.341       .  D
C1201      H1203   1.087       .  S
C1202      H1204   1.087       .  S
C1205      C1206   1.341       .  D
C1205      H1207   1.087       .  S
C1206      H1208   1.087       .  S
C1209      C1210   1.208       .  T
C1210      C1211   1.415       .  S
C1211      C1212   1.208       .  T
C1214      C1215   1.419       .  S
C1215      C1216   1.211       .  T
C1217      H1219   1.087       .  S
C1218      H1220   1.087       .  S
C1225      H1227   1.087       .  S
C1226      H1228   1.087       .  S
C1229      H1231   1.087       .  S
C1230      H1232   1.087       .  S
