geometry optimzed in LAMMPS
_audit_creation_date              2020-11-30 
_audit_creation_method            'lammps2cif' 
_symmetry_space_group_name_H-M    'P1' 
_symmetry_Int_Tables_number       1 
_symmetry_cell_setting            triclinic 
loop_ 
_symmetry_equiv_pos_as_xyz 
  x,y,z 
_cell_length_a                    23.71534595 
_cell_length_b                    31.99448044905002 
_cell_length_c                    32.27602758354529 
_cell_angle_alpha                 88.25511788715653 
_cell_angle_beta                  89.95722130226572 
_cell_angle_gamma                 90.05305937554621 
loop_ 
_atom_site_label 
_atom_site_type_symbol 
_atom_site_fract_x 
_atom_site_fract_y 
_atom_site_fract_z 
_atom_site_charge 
C1          C  0.02552064  0.29679698  0.09624891     0.88700
C2          C  0.98002225  0.29000035  0.12926702    -0.51500
C3          C  0.94863337  0.25414596  0.12475716     0.11700
C4          C  0.96672267  0.22833592  0.08672133     0.22600
C5          C  0.06048050  0.25655587  0.09819425    -0.52200
C6          C  0.03039275  0.22075226  0.09299199     0.11800
C7          C  0.99414171  0.29546429  0.05511750    -0.51800
C8          C  0.96365188  0.25982331  0.04939938     0.12300
H9          H  0.97286470  0.31162306  0.15402490     0.16900
H10         H  0.94239824  0.19921744  0.08202864     0.02600
H11         H  0.10597903  0.25643151  0.10225502     0.17200
H12         H  0.99831007  0.32013525  0.03139123     0.16900
C13         C  0.55458453  0.13140151  0.34612183     0.88700
C14         C  0.58652419  0.13036803  0.30511966    -0.51500
C15         C  0.61669933  0.09465598  0.29933574     0.11700
C16         C  0.61294815  0.06292649  0.33641769     0.22600
C17         C  0.51931417  0.09117866  0.34750949    -0.52200
C18         C  0.54921035  0.05538345  0.34223663     0.11800
C19         C  0.59965078  0.12422164  0.37940566    -0.51800
C20         C  0.63084891  0.08834364  0.37473801     0.12300
H21         H  0.58259602  0.15508400  0.28142784     0.16900
H22         H  0.63704869  0.03376357  0.33159344     0.02600
H23         H  0.47378447  0.09103805  0.35142402     0.17200
H24         H  0.60666009  0.14559382  0.40439826     0.16900
O25         O  0.65145303  0.11826829  0.23417813    -0.76200
C26         C  0.78539380  0.15134256  0.13933362     0.84800
O27         O  0.54338983  0.13389646  0.12171427    -0.77400
O28         O  0.69933278  0.07260088  0.04537879    -0.78800
O29         O  0.74277246  0.00112130  0.18187610    -0.78600
O30         O  0.64623410  0.04950738  0.24547574    -0.77300
Zn31       Zn  0.66927966  0.12895987  0.17402166     1.55700
O32         O  0.77370356  0.02248509  0.11926422    -0.78700
Cd33       Cd  0.66541772  0.03117210  0.18533157     1.59700
Cd34       Cd  0.58791859  0.07768998  0.11264606     1.59600
O35         O  0.60588546  0.98846589  0.16807936    -0.78600
O36         O  0.66157428  0.07868202  0.14414858    -1.89200
Cd37       Cd  0.72677215  0.07488115  0.10560272     1.59900
O38         O  0.54264761  0.02233958  0.12809187    -0.78600
O39         O  0.78302060  0.12378713  0.11182019    -0.77300
C40         C  0.56150853  0.16747547  0.13779208     0.85300
C41         C  0.64108937  0.08671863  0.25800466     0.84900
O42         O  0.74631635  0.15569215  0.16600114    -0.76200
C43         C  0.77744931  0.99923974  0.15176621     0.85700
O44         O  0.60936818  0.16893050  0.15561991    -0.76300
C45         C  0.56019300  0.98923775  0.14727290     0.85900
C46         C  0.65086843  0.07278587  0.02849031     0.86200
O47         O  0.60515263  0.07487888  0.04921337    -0.78700
C48         C  0.67843941  0.07671807  0.40459075    -0.00200
O49         O  0.93433050  0.21608478  0.49387894    -0.76200
C50         C  0.80318531  0.16544666  0.40194488     0.84800
O51         O  0.03769542  0.19004881  0.37769435    -0.77400
O52         O  0.87986568  0.23896184  0.29554806    -0.78800
O53         O  0.82973878  0.32232578  0.41687197    -0.78600
O54         O  0.92628256  0.28514035  0.48605880    -0.77300
Zn55       Zn  0.91480153  0.19771501  0.43470109     1.55700
O56         O  0.79587706  0.29023923  0.36180195    -0.78700
Cd57       Cd  0.90847079  0.29560902  0.42465678     1.59700
Cd58       Cd  0.99127977  0.24485235  0.36267403     1.59600
O59         O  0.96900654  0.33740189  0.40571418    -0.78600
O60         O  0.91756406  0.24382076  0.39432754    -1.89200
Cd61       Cd  0.85230261  0.24117057  0.35575406     1.59900
O62         O  0.03483289  0.30152476  0.37231597    -0.78600
O63         O  0.80541151  0.18890780  0.36952459    -0.77300
C64         C  0.01978676  0.15714700  0.39706067     0.85300
C65         C  0.93835026  0.25276721  0.50815640     0.84900
O66         O  0.83925382  0.16742405  0.43120263    -0.76200
C67         C  0.79198790  0.31767683  0.38937652     0.85700
O68         O  0.97389320  0.15689558  0.41768960    -0.76300
C69         C  0.01695385  0.33535052  0.38805475     0.85900
C70         C  0.92829516  0.23972074  0.27855539     0.86200
O71         O  0.97401436  0.24230333  0.29918738    -0.78700
C72         C  0.90071085  0.24316366  0.15458481    -0.00200
C73         C  0.52519058  0.20625179  0.13988159     0.88700
C74         C  0.48028213  0.21334975  0.10653214    -0.51500
C75         C  0.44885935  0.24913493  0.11111576     0.11700
C76         C  0.46647603  0.27463276  0.14942618     0.22600
C77         C  0.56029614  0.24652711  0.13853250    -0.52200
C78         C  0.53023036  0.28227898  0.14370508     0.11800
C79         C  0.49311211  0.20725282  0.18082973    -0.51800
C80         C  0.46278543  0.24291875  0.18655551     0.12300
H81         H  0.47342274  0.19190187  0.08157742     0.16900
H82         H  0.44216394  0.30373192  0.15410832     0.02600
H83         H  0.60584118  0.24673611  0.13470422     0.17200
H84         H  0.49710093  0.18256861  0.20454665     0.16900
C85         C  0.05371046  0.04059712  0.39001024     0.88700
C86         C  0.08573499  0.04140864  0.43092071    -0.51500
C87         C  0.11644612  0.07689506  0.43665485     0.11700
C88         C  0.11309663  0.10870823  0.39958052     0.22600
C89         C  0.01900828  0.08104735  0.38868953    -0.52200
C90         C  0.04940651  0.11666440  0.39386433     0.11800
C91         C  0.09875031  0.04748934  0.35665359    -0.51800
C92         C  0.13054751  0.08313466  0.36125508     0.12300
H93         H  0.08150739  0.01670379  0.45460907     0.16900
H94         H  0.13771617  0.13768521  0.40430171     0.02600
H95         H  0.97349187  0.08148225  0.38477185     0.17200
H96         H  0.10546681  0.02598699  0.33172658     0.16900
O97         O  0.15179692  0.05266482  0.00137914    -0.76200
C98         C  0.28536831  0.01845234  0.09637409     0.84800
O99         O  0.04403057  0.03563603  0.11490837    -0.77400
O100        O  0.19984754  0.09740142  0.19052790    -0.78800
O101        O  0.24290462  0.16904785  0.05417776    -0.78600
O102        O  0.14589849  0.12150374  0.49090692    -0.77300
Zn103      Zn  0.16946835  0.04125871  0.06150760     1.55700
O104        O  0.27447402  0.14714967  0.11638423    -0.78700
Cd105      Cd  0.16553485  0.13907605  0.05109030     1.59700
Cd106      Cd  0.08824920  0.09206617  0.12360737     1.59600
O107        O  0.10632861  0.18157331  0.06886110    -0.78600
O108        O  0.16180739  0.09123883  0.09187924    -1.89200
Cd109      Cd  0.22711746  0.09492031  0.13025559     1.59900
O110        O  0.04266745  0.14725428  0.10822850    -0.78600
O111        O  0.28291935  0.04584694  0.12403631    -0.77300
C112        C  0.06180194  0.00231668  0.09817185     0.85300
C113        C  0.14107150  0.08444527  0.47795265     0.84900
O114        O  0.24648486  0.01435193  0.06951752    -0.76200
C115        C  0.27796804  0.17061819  0.08401380     0.85700
O116        O  0.10924621  0.00118420  0.07965630    -0.76300
C117        C  0.06042153  0.18054832  0.08942811     0.85900
C118        C  0.15143078  0.09728589  0.20753725     0.86200
O119        O  0.10565548  0.09510349  0.18694871    -0.78700
C120        C  0.17863187  0.09397566  0.33149471    -0.00200
O121        O  0.33333683  0.18154050  0.31992329    -0.76200
C122        C  0.43841475  0.25083360  0.22791481     0.84800
O123        O  0.53644598  0.20380106  0.36415398    -0.77400
O124        O  0.47340727  0.01587130  0.31793647    -0.78800
O125        O  0.30546333  0.31447492  0.36666340    -0.78600
O126        O  0.29676382  0.21316125  0.37430290    -0.77300
Zn127      Zn  0.41032822  0.20848769  0.31191523     1.55700
O128        O  0.33645527  0.33610170  0.30414031    -0.78700
Cd129      Cd  0.35275362  0.26227263  0.38035693     1.59700
Cd130      Cd  0.49167611  0.25987633  0.37323183     1.59600
O131        O  0.38029297  0.26462362  0.44052521    -0.78600
O132        O  0.41795972  0.25875584  0.34178360    -1.89200
Cd133      Cd  0.41400521  0.30632378  0.30065442     1.59900
O134        O  0.47448395  0.26249768  0.43666951    -0.78600
O135        O  0.43322184  0.28803668  0.24046849    -0.77300
C136        C  0.51829017  0.17018241  0.34819210     0.85300
C137        C  0.29435982  0.18568701  0.34671343     0.84900
O138        O  0.42813929  0.21926355  0.25174503    -0.76200
C139        C  0.30166839  0.33777827  0.33420283     0.85700
O140        O  0.47039012  0.16868230  0.33041594    -0.76300
C141        C  0.42876193  0.26447086  0.45739829     0.85900
C142        C  0.51914887  0.34844115  0.33869841     0.86200
O143        O  0.53675318  0.31532481  0.35782409    -0.78700
C144        C  0.40107542  0.26021404  0.08126594    -0.00200
C145        C  0.43068588  0.26599251  0.50172462    -0.11000
C146        C  0.42217440  0.26516993  0.03858771    -0.12600
C147        C  0.21063292  0.13170521  0.34163782    -0.11000
C148        C  0.24642008  0.15817338  0.34568886    -0.12600
C149        C  0.21986623  0.05990189  0.33209617    -0.11000
C150        C  0.25664150  0.03403630  0.33206851    -0.12600
C151        C  0.15789521  0.09871297  0.28872482    -0.11000
C152        C  0.14958475  0.09917722  0.25184845    -0.12600
C153        C  0.32295076  0.20027650  0.08170354    -0.11000
C154        C  0.35971790  0.22618638  0.08163657    -0.12600
C155        C  0.36911724  0.29790511  0.09145752    -0.11000
C156        C  0.33327823  0.32431089  0.09538918    -0.12600
C157        C  0.93014310  0.23808154  0.23420849    -0.11000
C158        C  0.92161703  0.23857806  0.19734634    -0.12600
C159        C  0.74389489  0.01156985  0.38968636    -0.11000
C160        C  0.70903328  0.03855030  0.39407109    -0.12600
C161        C  0.75834876  0.13554997  0.40480038    -0.11000
C162        C  0.72089483  0.11011006  0.40448960    -0.12600
C163        C  0.64891321  0.07113974  0.98415884    -0.11000
C164        C  0.65730138  0.07184367  0.44727336    -0.12600
C165        C  0.82235033  0.30287352  0.15392909    -0.11000
C166        C  0.85918467  0.27704978  0.15395677    -0.12600
C167        C  0.86905491  0.20528875  0.14449757    -0.11000
C168        C  0.83338993  0.17875936  0.14040014    -0.12600
C169        C  0.02552152  0.29680131  0.59624838     0.88700
C170        C  0.98002206  0.29000379  0.62926700    -0.51500
C171        C  0.94863379  0.25415059  0.62475727     0.11700
C172        C  0.96672129  0.22833950  0.58672060     0.22600
C173        C  0.06047708  0.25655998  0.59819265    -0.52200
C174        C  0.03039421  0.22075749  0.59299086     0.11800
C175        C  0.99414023  0.29546848  0.55511749    -0.51800
C176        C  0.96365110  0.25982870  0.54939906     0.12300
H177        H  0.97286307  0.31162534  0.65402546     0.16900
H178        H  0.94239694  0.19922217  0.58202821     0.02600
H179        H  0.10597683  0.25643513  0.60225359     0.17200
H180        H  0.99830767  0.32013941  0.53139133     0.16900
C181        C  0.55458287  0.13139912  0.84612192     0.88700
C182        C  0.58652390  0.13036581  0.80512179    -0.51500
C183        C  0.61669793  0.09465483  0.79933666     0.11700
C184        C  0.61294684  0.06292340  0.83641863     0.22600
C185        C  0.51931412  0.09117704  0.84750980    -0.52200
C186        C  0.54920769  0.05538161  0.84223720     0.11800
C187        C  0.59965080  0.12422175  0.87941053    -0.51800
C188        C  0.63084681  0.08833930  0.87473830     0.12300
H189        H  0.58259542  0.15508228  0.78143052     0.16900
H190        H  0.63704497  0.03376077  0.83159507     0.02600
H191        H  0.47378427  0.09103784  0.85142294     0.17200
H192        H  0.60666010  0.14559224  0.90440088     0.16900
O193        O  0.65145086  0.11826886  0.73417948    -0.76200
C194        C  0.78539099  0.15134920  0.63933471     0.84800
O195        O  0.54339021  0.13389931  0.62170992    -0.77400
O196        O  0.69933479  0.07260645  0.54537802    -0.78800
O197        O  0.74277201  0.00112517  0.68187375    -0.78600
O198        O  0.64623362  0.04950764  0.74547506    -0.77300
Zn199      Zn  0.66927746  0.12896271  0.67402266     1.55700
O200        O  0.77370622  0.02249237  0.61926366    -0.78700
Cd201      Cd  0.66541697  0.03117478  0.68533020     1.59700
Cd202      Cd  0.58791899  0.07769257  0.61264381     1.59600
O203        O  0.60588484  0.98846859  0.66807773    -0.78600
O204        O  0.66157356  0.07868546  0.64414803    -1.89200
Cd205      Cd  0.72677236  0.07488688  0.60560267     1.59900
O206        O  0.54264752  0.02234229  0.62808979    -0.78600
O207        O  0.78301817  0.12379408  0.61182136    -0.77300
C208        C  0.56150657  0.16747764  0.63779052     0.85300
C209        C  0.64108828  0.08671837  0.75800520     0.84900
O210        O  0.74631314  0.15569773  0.66600287    -0.76200
C211        C  0.77745082  0.99924527  0.65176542     0.85700
O212        O  0.60936476  0.16893197  0.65562104    -0.76300
C213        C  0.56019259  0.98924032  0.64727148     0.85900
C214        C  0.65087147  0.07278967  0.52848921     0.86200
O215        O  0.60515452  0.07488088  0.54921111    -0.78700
C216        C  0.67843613  0.07671296  0.90459270    -0.00200
O217        O  0.93433004  0.21608011  0.99387991    -0.76200
C218        C  0.80318490  0.16543981  0.90194689     0.84800
O219        O  0.03769270  0.19004401  0.87769463    -0.77400
O220        O  0.87986210  0.23895909  0.79554906    -0.78800
O221        O  0.82973584  0.32232118  0.91687362    -0.78600
O222        O  0.92628234  0.28513572  0.98605958    -0.77300
Zn223      Zn  0.91479981  0.19771020  0.93470248     1.55700
O224        O  0.79587150  0.29023153  0.86180627    -0.78700
Cd225      Cd  0.90846875  0.29560491  0.92465771     1.59700
Cd226      Cd  0.99127716  0.24484828  0.86267504     1.59600
O227        O  0.96900466  0.33739821  0.90571430    -0.78600
O228        O  0.91756166  0.24381622  0.89432894    -1.89200
Cd229      Cd  0.85229967  0.24116450  0.85575605     1.59900
O230        O  0.03483140  0.30152046  0.87231737    -0.78600
O231        O  0.80541127  0.18889980  0.86952611    -0.77300
C232        C  0.01978508  0.15714251  0.89706144     0.85300
C233        C  0.93835057  0.25276266  0.00815703     0.84900
O234        O  0.83925211  0.16741825  0.93120520    -0.76200
C235        C  0.79198346  0.31767028  0.88937955     0.85700
O236        O  0.97389180  0.15689074  0.91769099    -0.76300
C237        C  0.01695275  0.33534616  0.88805611     0.85900
C238        C  0.92829162  0.23971950  0.77855653     0.86200
O239        O  0.97401071  0.24230142  0.79918817    -0.78700
C240        C  0.90071044  0.24316847  0.65458463    -0.00200
C241        C  0.52518914  0.20625457  0.63988001     0.88700
C242        C  0.48027983  0.21335100  0.60652876    -0.51500
C243        C  0.44885826  0.24913911  0.61111553     0.11700
C244        C  0.46647542  0.27463468  0.64942606     0.22600
C245        C  0.56029573  0.24652883  0.63853118    -0.52200
C246        C  0.53022978  0.28228103  0.64370447     0.11800
C247        C  0.49311066  0.20725163  0.68083100    -0.51800
C248        C  0.46278394  0.24292139  0.68655410     0.12300
H249        H  0.47342032  0.19190490  0.58157450     0.16900
H250        H  0.44216369  0.30373274  0.65410950     0.02600
H251        H  0.60584030  0.24673764  0.63470202     0.17200
H252        H  0.49709782  0.18256868  0.70454672     0.16900
C253        C  0.05370868  0.04059334  0.89001053     0.88700
C254        C  0.08573498  0.04140244  0.93092358    -0.51500
C255        C  0.11644647  0.07689220  0.93665448     0.11700
C256        C  0.11309551  0.10870405  0.89958042     0.22600
C257        C  0.01900916  0.08104265  0.88869110    -0.52200
C258        C  0.04940377  0.11665961  0.89386490     0.11800
C259        C  0.09874836  0.04748570  0.85665359    -0.51800
C260        C  0.13054533  0.08313106  0.86125458     0.12300
H261        H  0.08150940  0.01669912  0.95461158     0.16900
H262        H  0.13771588  0.13768064  0.90430009     0.02600
H263        H  0.97349135  0.08147726  0.88477302     0.17200
H264        H  0.10546443  0.02598433  0.83172573     0.16900
O265        O  0.15179687  0.05266881  0.50137882    -0.76200
C266        C  0.28537094  0.01845975  0.59637245     0.84800
O267        O  0.04403039  0.03564174  0.61490508    -0.77400
O268        O  0.19984721  0.09740579  0.69052683    -0.78800
O269        O  0.24290340  0.16905394  0.55417456    -0.78600
O270        O  0.14589847  0.12149973  0.99090775    -0.77300
Zn271      Zn  0.16946924  0.04126342  0.56150741     1.55700
O272        O  0.27447204  0.14715824  0.61638198    -0.78700
Cd273      Cd  0.16553458  0.13908126  0.55108869     1.59700
Cd274      Cd  0.08824955  0.09207096  0.62360550     1.59600
O275        O  0.10632814  0.18157826  0.56885892    -0.78600
O276        O  0.16180803  0.09124431  0.59187793    -1.89200
Cd277      Cd  0.22711823  0.09492732  0.63025394     1.59900
O278        O  0.04266836  0.14725920  0.60822756    -0.78600
O279        O  0.28292306  0.04585537  0.62403375    -0.77300
C280        C  0.06180184  0.00232136  0.59817121     0.85300
C281        C  0.14107153  0.08444130  0.97795298     0.84900
O282        O  0.24648682  0.01435767  0.56951724    -0.76200
C283        C  0.27796626  0.17062551  0.58401116     0.85700
O284        O  0.10924763  0.00118769  0.57965679    -0.76300
C285        C  0.06042110  0.18055297  0.58942652     0.85900
C286        C  0.15143055  0.09728792  0.70753590     0.86200
O287        O  0.10565518  0.09510548  0.68694725    -0.78700
C288        C  0.17862948  0.09397283  0.83149382    -0.00200
O289        O  0.33333535  0.18153831  0.81992152    -0.76200
C290        C  0.43841347  0.25083402  0.72791411     0.84800
O291        O  0.53644310  0.20379893  0.86415567    -0.77400
O292        O  0.47340595  0.01586868  0.81793684    -0.78800
O293        O  0.30546088  0.31447277  0.86666235    -0.78600
O294        O  0.29676113  0.21315947  0.87430055    -0.77300
Zn295      Zn  0.41032702  0.20848566  0.81191379     1.55700
O296        O  0.33645353  0.33609984  0.80413960    -0.78700
Cd297      Cd  0.35275087  0.26227013  0.88035584     1.59700
Cd298      Cd  0.49167314  0.25987404  0.87323231     1.59600
O299        O  0.38028880  0.26461935  0.94052479    -0.78600
O300        O  0.41795757  0.25875338  0.84178298    -1.89200
Cd301      Cd  0.41400331  0.30632204  0.80065424     1.59900
O302        O  0.47447985  0.26249471  0.93666977    -0.78600
O303        O  0.43321992  0.28803715  0.74046807    -0.77300
C304        C  0.51828873  0.17018035  0.84819299     0.85300
C305        C  0.29435750  0.18568461  0.84671095     0.84900
O306        O  0.42813834  0.21926389  0.75174385    -0.76200
C307        C  0.30166653  0.33777603  0.83420193     0.85700
O308        O  0.47038966  0.16868030  0.83041500    -0.76300
C309        C  0.42875738  0.26446670  0.95739841     0.85900
C310        C  0.51914739  0.34843863  0.83869834     0.86200
O311        O  0.53675042  0.31532234  0.85782478    -0.78700
C312        C  0.40107602  0.26021981  0.58126454    -0.00200
C313        C  0.43068116  0.26598712  0.00172489    -0.11000
C314        C  0.42217703  0.26517597  0.53858697    -0.12600
C315        C  0.21063045  0.13170238  0.84163633    -0.11000
C316        C  0.24641826  0.15817123  0.84568663    -0.12600
C317        C  0.21986385  0.05989913  0.83209486    -0.11000
C318        C  0.25663940  0.03403373  0.83206736    -0.12600
C319        C  0.15789269  0.09871034  0.78872383    -0.11000
C320        C  0.14958356  0.09917648  0.75184757    -0.12600
C321        C  0.32294869  0.20028432  0.58170010    -0.11000
C322        C  0.35971643  0.22619349  0.58163361    -0.12600
C323        C  0.36911968  0.29791191  0.59145628    -0.11000
C324        C  0.33328098  0.32431830  0.59538754    -0.12600
C325        C  0.93013972  0.23808335  0.73420875    -0.11000
C326        C  0.92161582  0.23858216  0.69734681    -0.12600
C327        C  0.74388986  0.01156290  0.88968908    -0.11000
C328        C  0.70902853  0.03854422  0.89407327    -0.12600
C329        C  0.75834780  0.13554263  0.90480270    -0.11000
C330        C  0.72089359  0.11010395  0.90449182    -0.12600
C331        C  0.64891764  0.07114357  0.48415694    -0.11000
C332        C  0.65729693  0.07183931  0.94727458    -0.12600
C333        C  0.82235265  0.30287988  0.65392858    -0.11000
C334        C  0.85918579  0.27705608  0.65395672    -0.12600
C335        C  0.86905283  0.20529503  0.64449757    -0.11000
C336        C  0.83338615  0.17876635  0.64040110    -0.12600
C337        C  0.02552126  0.63013036  0.09624805     0.88700
C338        C  0.98002044  0.62333348  0.12926811    -0.51500
C339        C  0.94863286  0.58747917  0.12475732     0.11700
C340        C  0.96672034  0.56166794  0.08672175     0.22600
C341        C  0.06047053  0.58988884  0.09819378    -0.52200
C342        C  0.03039545  0.55408658  0.09299236     0.11800
C343        C  0.99413903  0.62879307  0.05512076    -0.51800
C344        C  0.96365136  0.59315762  0.04939899     0.12300
H345        H  0.97286149  0.64495515  0.15402592     0.16900
H346        H  0.94239463  0.53255021  0.08202917     0.02600
H347        H  0.10597307  0.58976492  0.10225475     0.17200
H348        H  0.99830692  0.65346487  0.03139231     0.16900
C349        C  0.55458395  0.46473483  0.34612257     0.88700
C350        C  0.58652321  0.46370510  0.30511700    -0.51500
C351        C  0.61669931  0.42798854  0.29933606     0.11700
C352        C  0.61294705  0.39626122  0.33641742     0.22600
C353        C  0.51931427  0.42451256  0.34750922    -0.52200
C354        C  0.54921014  0.38871679  0.34223657     0.11800
C355        C  0.59965098  0.45755556  0.37940549    -0.51800
C356        C  0.63084911  0.42167701  0.37473775     0.12300
H357        H  0.58259537  0.48842032  0.28142640     0.16900
H358        H  0.63704720  0.36709748  0.33159324     0.02600
H359        H  0.47378385  0.42437175  0.35142391     0.17200
H360        H  0.60666134  0.47892762  0.40439852     0.16900
O361        O  0.65145341  0.45160151  0.23417775    -0.76200
C362        C  0.78539396  0.48467597  0.13933359     0.84800
O363        O  0.54339053  0.46722976  0.12171439    -0.77400
O364        O  0.69933237  0.40593418  0.04537886    -0.78800
O365        O  0.74277253  0.33445458  0.18187619    -0.78600
O366        O  0.64623410  0.38284074  0.24547616    -0.77300
Zn367      Zn  0.66927985  0.46229322  0.17402165     1.55700
O368        O  0.77370366  0.35581835  0.11926425    -0.78700
Cd369      Cd  0.66541794  0.36450553  0.18533169     1.59700
Cd370      Cd  0.58791884  0.41102337  0.11264611     1.59600
O371        O  0.60588627  0.32179928  0.16807952    -0.78600
O372        O  0.66157449  0.41201544  0.14414856    -1.89200
Cd373      Cd  0.72677230  0.40821445  0.10560269     1.59900
O374        O  0.54264829  0.35567297  0.12809209    -0.78600
O375        O  0.78302074  0.45712036  0.11182017    -0.77300
C376        C  0.56150914  0.50080904  0.13779171     0.85300
C377        C  0.64108908  0.42005227  0.25800454     0.84900
O378        O  0.74631636  0.48902550  0.16600106    -0.76200
C379        C  0.77744971  0.33257275  0.15176622     0.85700
O380        O  0.60936896  0.50226388  0.15562010    -0.76300
C381        C  0.56019356  0.32257104  0.14727284     0.85900
C382        C  0.65086837  0.40611922  0.02849030     0.86200
O383        O  0.60515224  0.40821232  0.04921340    -0.78700
C384        C  0.67843929  0.41005143  0.40459066    -0.00200
O385        O  0.93433058  0.54941762  0.49387887    -0.76200
C386        C  0.80318546  0.49878011  0.40194470     0.84800
O387        O  0.03769561  0.52338193  0.37769430    -0.77400
O388        O  0.87986449  0.57229524  0.29554800    -0.78800
O389        O  0.82973871  0.65565909  0.41687189    -0.78600
O390        O  0.92628250  0.61847317  0.48605900    -0.77300
Zn391      Zn  0.91480153  0.53104835  0.43470102     1.55700
O392        O  0.79587705  0.62357243  0.36180196    -0.78700
Cd393      Cd  0.90847088  0.62894258  0.42465681     1.59700
Cd394      Cd  0.99127978  0.57818583  0.36267403     1.59600
O395        O  0.96900629  0.67073615  0.40571431    -0.78600
O396        O  0.91756420  0.57715423  0.39432758    -1.89200
Cd397      Cd  0.85230265  0.57450393  0.35575410     1.59900
O398        O  0.03483247  0.63485880  0.37231619    -0.78600
O399        O  0.80541143  0.52224114  0.36952407    -0.77300
C400        C  0.01978699  0.49048015  0.39706063     0.85300
C401        C  0.93834988  0.58610030  0.50815636     0.84900
O402        O  0.83925351  0.50075747  0.43120213    -0.76200
C403        C  0.79198809  0.65100999  0.38937648     0.85700
O404        O  0.97389347  0.49022866  0.41768956    -0.76300
C405        C  0.01695420  0.66868410  0.38805505     0.85900
C406        C  0.92829484  0.57305412  0.27855543     0.86200
O407        O  0.97401315  0.57563675  0.29918738    -0.78700
C408        C  0.90071034  0.57649676  0.15458499    -0.00200
C409        C  0.52519034  0.53958529  0.13988247     0.88700
C410        C  0.48028206  0.54667962  0.10652825    -0.51500
C411        C  0.44885966  0.58246912  0.11111643     0.11700
C412        C  0.46647679  0.60796592  0.14942544     0.22600
C413        C  0.56030463  0.57986042  0.13853142    -0.52200
C414        C  0.53022862  0.61561267  0.14370490     0.11800
C415        C  0.49311288  0.54058605  0.18082913    -0.51800
C416        C  0.46278603  0.57625168  0.18655524     0.12300
H417        H  0.47342225  0.52523265  0.08157644     0.16900
H418        H  0.44216565  0.63706384  0.15410732     0.02600
H419        H  0.60584579  0.58006989  0.13470421     0.17200
H420        H  0.49710107  0.51590145  0.20454559     0.16900
C421        C  0.05370918  0.37393075  0.39001118     0.88700
C422        C  0.08573487  0.37474175  0.43092061    -0.51500
C423        C  0.11644619  0.41022810  0.43665454     0.11700
C424        C  0.11309703  0.44204107  0.39957983     0.22600
C425        C  0.01900903  0.41438034  0.38868933    -0.52200
C426        C  0.04940606  0.44999719  0.39386392     0.11800
C427        C  0.09875032  0.38081932  0.35665067    -0.51800
C428        C  0.13054733  0.41646827  0.36125561     0.12300
H429        H  0.08150701  0.35003715  0.45460890     0.16900
H430        H  0.13771664  0.47101732  0.40430066     0.02600
H431        H  0.97349230  0.41481487  0.38477165     0.17200
H432        H  0.10546556  0.35931755  0.33172593     0.16900
O433        O  0.15179697  0.38599723  0.00137935    -0.76200
C434        C  0.28536845  0.35178578  0.09637417     0.84800
O435        O  0.04403080  0.36896978  0.11490839    -0.77400
O436        O  0.19984762  0.43073475  0.19052790    -0.78800
O437        O  0.24290467  0.50238122  0.05417778    -0.78600
O438        O  0.14589852  0.45483702  0.49090685    -0.77300
Zn439      Zn  0.16946846  0.37459204  0.06150769     1.55700
O440        O  0.27447423  0.48048304  0.11638418    -0.78700
Cd441      Cd  0.16553483  0.47240944  0.05109030     1.59700
Cd442      Cd  0.08824942  0.42539953  0.12360741     1.59600
O443        O  0.10632859  0.51490722  0.06886098    -0.78600
O444        O  0.16180745  0.42457224  0.09187928    -1.89200
Cd445      Cd  0.22711759  0.42825368  0.13025563     1.59900
O446        O  0.04266803  0.48058751  0.10822833    -0.78600
O447        O  0.28291971  0.37918030  0.12403661    -0.77300
C448        C  0.06180177  0.33565023  0.09817178     0.85300
C449        C  0.14107154  0.41777852  0.47795251     0.84900
O450        O  0.24648530  0.34768539  0.06951777    -0.76200
C451        C  0.27796792  0.50395143  0.08401377     0.85700
O452        O  0.10924633  0.33451771  0.07965637    -0.76300
C453        C  0.06042096  0.51388153  0.08942773     0.85900
C454        C  0.15143087  0.43061918  0.20753725     0.86200
O455        O  0.10565555  0.42843673  0.18694872    -0.78700
C456        C  0.17863180  0.42730846  0.33149444    -0.00200
O457        O  0.33333674  0.51487378  0.31992340    -0.76200
C458        C  0.43841494  0.58416694  0.22791463     0.84800
O459        O  0.53644539  0.53713471  0.36415383    -0.77400
O460        O  0.47340741  0.34920421  0.31793659    -0.78800
O461        O  0.30546335  0.64780846  0.36666307    -0.78600
O462        O  0.29676373  0.54649465  0.37430291    -0.77300
Zn463      Zn  0.41032811  0.54182113  0.31191519     1.55700
O464        O  0.33645545  0.66943529  0.30414001    -0.78700
Cd465      Cd  0.35275367  0.59560604  0.38035689     1.59700
Cd466      Cd  0.49167615  0.59320965  0.37323187     1.59600
O467        O  0.38029369  0.59795704  0.44052522    -0.78600
O468        O  0.41795983  0.59208923  0.34178363    -1.89200
Cd469      Cd  0.41400529  0.63965718  0.30065441     1.59900
O470        O  0.47448469  0.59583089  0.43666957    -0.78600
O471        O  0.43322214  0.62137001  0.24046830    -0.77300
C472        C  0.51829014  0.50351602  0.34819203     0.85300
C473        C  0.29435974  0.51902034  0.34671347     0.84900
O474        O  0.42813931  0.55259697  0.25174475    -0.76200
C475        C  0.30166837  0.67111192  0.33420272     0.85700
O476        O  0.47038941  0.50201579  0.33041588    -0.76300
C477        C  0.42876219  0.59780418  0.45739828     0.85900
C478        C  0.51914928  0.68177438  0.33869832     0.86200
O479        O  0.53675298  0.64865774  0.35782413    -0.78700
C480        C  0.40107554  0.59354703  0.08126576    -0.00200
C481        C  0.43068629  0.59932582  0.50172471    -0.11000
C482        C  0.42217408  0.59850321  0.03858762    -0.12600
C483        C  0.21063263  0.46503844  0.34163794    -0.11000
C484        C  0.24641980  0.49150670  0.34568898    -0.12600
C485        C  0.21986641  0.39323503  0.33209605    -0.11000
C486        C  0.25664157  0.36736938  0.33206866    -0.12600
C487        C  0.15789541  0.43204617  0.28872467    -0.11000
C488        C  0.14958486  0.43251063  0.25184835    -0.12600
C489        C  0.32295074  0.53361003  0.08170348    -0.11000
C490        C  0.35971757  0.55951964  0.08163647    -0.12600
C491        C  0.36911742  0.63123838  0.09145770    -0.11000
C492        C  0.33327809  0.65764415  0.09538902    -0.12600
C493        C  0.93014259  0.57141486  0.23420851    -0.11000
C494        C  0.92161701  0.57191137  0.19734644    -0.12600
C495        C  0.74389500  0.34490298  0.38968626    -0.11000
C496        C  0.70903307  0.37188372  0.39407096    -0.12600
C497        C  0.75834846  0.46888321  0.40480008    -0.11000
C498        C  0.72089500  0.44344342  0.40448967    -0.12600
C499        C  0.64891306  0.40447307  0.98415883    -0.11000
C500        C  0.65730142  0.40517697  0.44727334    -0.12600
C501        C  0.82235047  0.63620690  0.15392913    -0.11000
C502        C  0.85918415  0.61038341  0.15395681    -0.12600
C503        C  0.86905480  0.53862213  0.14449778    -0.11000
C504        C  0.83338980  0.51209260  0.14040004    -0.12600
C505        C  0.02552193  0.63013527  0.59624764     0.88700
C506        C  0.98002156  0.62333721  0.62926708    -0.51500
C507        C  0.94863322  0.58748358  0.62475741     0.11700
C508        C  0.96672135  0.56167363  0.58672120     0.22600
C509        C  0.06046896  0.58989357  0.59819218    -0.52200
C510        C  0.03039573  0.55409112  0.59299110     0.11800
C511        C  0.99413838  0.62879838  0.55512058    -0.51800
C512        C  0.96365056  0.59316244  0.54939847     0.12300
H513        H  0.97286256  0.64495890  0.65402649     0.16900
H514        H  0.94239637  0.53255377  0.58202839     0.02600
H515        H  0.10597313  0.58976868  0.60225342     0.17200
H516        H  0.99830609  0.65347066  0.53139172     0.16900
C517        C  0.55458221  0.46473186  0.84612418     0.88700
C518        C  0.58652216  0.46370304  0.80511830    -0.51500
C519        C  0.61669783  0.42798708  0.79933724     0.11700
C520        C  0.61294696  0.39625678  0.83641767     0.22600
C521        C  0.51931435  0.42450938  0.84750931    -0.52200
C522        C  0.54920751  0.38871483  0.84223669     0.11800
C523        C  0.59964980  0.45755167  0.87940662    -0.51800
C524        C  0.63084671  0.42167401  0.87473901     0.12300
H525        H  0.58259340  0.48841830  0.78142935     0.16900
H526        H  0.63704538  0.36709439  0.83159457     0.02600
H527        H  0.47378413  0.42436882  0.85142310     0.17200
H528        H  0.60665931  0.47892331  0.90439925     0.16900
O529        O  0.65145095  0.45160197  0.73417912    -0.76200
C530        C  0.78539110  0.48468253  0.63933460     0.84800
O531        O  0.54339015  0.46723266  0.62170987    -0.77400
O532        O  0.69933603  0.40593969  0.54537795    -0.78800
O533        O  0.74277221  0.33445826  0.68187426    -0.78600
O534        O  0.64623352  0.38284075  0.74547528    -0.77300
Zn535      Zn  0.66927765  0.46229595  0.67402260     1.55700
O536        O  0.77370612  0.35582536  0.61926417    -0.78700
Cd537      Cd  0.66541722  0.36450809  0.68533032     1.59700
Cd538      Cd  0.58791906  0.41102583  0.61264381     1.59600
O539        O  0.60588609  0.32180163  0.66807814    -0.78600
O540        O  0.66157351  0.41201881  0.64414801    -1.89200
Cd541      Cd  0.72677249  0.40822014  0.60560275     1.59900
O542        O  0.54264837  0.35567504  0.62809030    -0.78600
O543        O  0.78301861  0.45712739  0.61182112    -0.77300
C544        C  0.56150706  0.50081122  0.63779034     0.85300
C545        C  0.64108783  0.42005206  0.75800507     0.84900
O546        O  0.74631356  0.48903108  0.66600256    -0.76200
C547        C  0.77745063  0.33257869  0.65176556     0.85700
O548        O  0.60936513  0.50226495  0.65562105    -0.76300
C549        C  0.56019335  0.32257320  0.64727140     0.85900
C550        C  0.65087185  0.40612299  0.52848925     0.86200
O551        O  0.60515578  0.40821413  0.54921112    -0.78700
C552        C  0.67843626  0.41004607  0.90459239    -0.00200
O553        O  0.93432982  0.54941259  0.99387959    -0.76200
C554        C  0.80318448  0.49877290  0.90194688     0.84800
O555        O  0.03769229  0.52337731  0.87769475    -0.77400
O556        O  0.87986204  0.57229239  0.79554904    -0.78800
O557        O  0.82973576  0.65565452  0.91687369    -0.78600
O558        O  0.92628248  0.61846824  0.98605994    -0.77300
Zn559      Zn  0.91479984  0.53104338  0.93470240     1.55700
O560        O  0.79587149  0.62356490  0.86180632    -0.78700
Cd561      Cd  0.90846876  0.62893814  0.92465780     1.59700
Cd562      Cd  0.99127695  0.57818163  0.86267508     1.59600
O563        O  0.96900405  0.67073185  0.90571459    -0.78600
O564        O  0.91756151  0.57714944  0.89432889    -1.89200
Cd565      Cd  0.85229954  0.57449783  0.85575597     1.59900
O566        O  0.03483086  0.63485411  0.87231758    -0.78600
O567        O  0.80541136  0.52223329  0.86952592    -0.77300
C568        C  0.01978537  0.49047582  0.89706177     0.85300
C569        C  0.93834978  0.58609541  0.00815709     0.84900
O570        O  0.83925226  0.50075179  0.93120511    -0.76200
C571        C  0.79198351  0.65100358  0.88937955     0.85700
O572        O  0.97389191  0.49022351  0.91769105    -0.76300
C573        C  0.01695277  0.66867986  0.88805600     0.85900
C574        C  0.92829152  0.57305283  0.77855649     0.86200
O575        O  0.97401067  0.57563471  0.79918819    -0.78700
C576        C  0.90071036  0.57650204  0.65458490    -0.00200
C577        C  0.52518734  0.53958762  0.63988014     0.88700
C578        C  0.48028079  0.54668454  0.60652902    -0.51500
C579        C  0.44885855  0.58247251  0.61111539     0.11700
C580        C  0.46647652  0.60796816  0.64942589     0.22600
C581        C  0.56030582  0.57986243  0.63853039    -0.52200
C582        C  0.53022650  0.61561567  0.64370451     0.11800
C583        C  0.49311155  0.54058524  0.68083065    -0.51800
C584        C  0.46278431  0.57625471  0.68655411     0.12300
H585        H  0.47342198  0.52523796  0.58157490     0.16900
H586        H  0.44216578  0.63706626  0.65410931     0.02600
H587        H  0.60584566  0.58007167  0.63470216     0.17200
H588        H  0.49709937  0.51590204  0.70454631     0.16900
C589        C  0.05370724  0.37392702  0.89001045     0.88700
C590        C  0.08573512  0.37473511  0.93092387    -0.51500
C591        C  0.11644702  0.41022542  0.93665450     0.11700
C592        C  0.11309637  0.44203702  0.89958074     0.22600
C593        C  0.01901709  0.41437609  0.88869199    -0.52200
C594        C  0.04940256  0.44999269  0.89386508     0.11800
C595        C  0.09874812  0.38081906  0.85665465    -0.51800
C596        C  0.13054563  0.41646411  0.86125460     0.12300
H597        H  0.08150797  0.35003197  0.95461174     0.16900
H598        H  0.13771689  0.47101497  0.90430053     0.02600
H599        H  0.97349585  0.41481072  0.88477309     0.17200
H600        H  0.10546223  0.35931708  0.83172620     0.16900
O601        O  0.15179687  0.38600211  0.50137866    -0.76200
C602        C  0.28537091  0.35179304  0.59637244     0.84800
O603        O  0.04403103  0.36897468  0.61490486    -0.77400
O604        O  0.19984842  0.43073911  0.69052692    -0.78800
O605        O  0.24290380  0.50238745  0.55417448    -0.78600
O606        O  0.14589849  0.45483220  0.99090785    -0.77300
Zn607      Zn  0.16946935  0.37459672  0.56150730     1.55700
O608        O  0.27447240  0.48049168  0.61638193    -0.78700
Cd609      Cd  0.16553470  0.47241458  0.55108878     1.59700
Cd610      Cd  0.08824972  0.42540419  0.62360552     1.59600
O611        O  0.10632768  0.51491171  0.56885915    -0.78600
O612        O  0.16180808  0.42457749  0.59187794    -1.89200
Cd613      Cd  0.22711836  0.42826068  0.63025393     1.59900
O614        O  0.04266812  0.48059242  0.60822765    -0.78600
O615        O  0.28292269  0.37918872  0.62403376    -0.77300
C616        C  0.06180199  0.33565482  0.59817075     0.85300
C617        C  0.14107143  0.41777433  0.97795304     0.84900
O618        O  0.24648658  0.34769106  0.56951715    -0.76200
C619        C  0.27796661  0.50395903  0.58401117     0.85700
O620        O  0.10924855  0.33452106  0.57965645    -0.76300
C621        C  0.06042091  0.51388632  0.58942634     0.85900
C622        C  0.15143091  0.43062128  0.70753589     0.86200
O623        O  0.10565639  0.42843884  0.68694724    -0.78700
C624        C  0.17862936  0.42730601  0.83149375    -0.00200
O625        O  0.33333504  0.51487150  0.81992180    -0.76200
C626        C  0.43841366  0.58416728  0.72791397     0.84800
O627        O  0.53644332  0.53713198  0.86415581    -0.77400
O628        O  0.47340586  0.34920221  0.81793646    -0.78800
O629        O  0.30546124  0.64780610  0.86666183    -0.78600
O630        O  0.29676080  0.54649271  0.87430078    -0.77300
Zn631      Zn  0.41032699  0.54181900  0.81191378     1.55700
O632        O  0.33645378  0.66943340  0.80413910    -0.78700
Cd633      Cd  0.35275093  0.59560337  0.88035578     1.59700
Cd634      Cd  0.49167328  0.59320736  0.87323230     1.59600
O635        O  0.38028884  0.59795264  0.94052479    -0.78600
O636        O  0.41795766  0.59208674  0.84178293    -1.89200
Cd637      Cd  0.41400339  0.63965537  0.80065414     1.59900
O638        O  0.47447990  0.59582800  0.93666977    -0.78600
O639        O  0.43321991  0.62137011  0.74046791    -0.77300
C640        C  0.51828854  0.50351346  0.84819291     0.85300
C641        C  0.29435745  0.51901781  0.84671104     0.84900
O642        O  0.42813857  0.55259683  0.75174366    -0.76200
C643        C  0.30166649  0.67110953  0.83420183     0.85700
O644        O  0.47038940  0.50201383  0.83041513    -0.76300
C645        C  0.42875738  0.59779998  0.95739845     0.85900
C646        C  0.51914704  0.68177222  0.83869850     0.86200
O647        O  0.53675057  0.64865598  0.85782480    -0.78700
C648        C  0.40107634  0.59355311  0.58126460    -0.00200
C649        C  0.43068114  0.59932043  0.00172482    -0.11000
C650        C  0.42217719  0.59850927  0.53858697    -0.12600
C651        C  0.21063046  0.46503565  0.84163628    -0.11000
C652        C  0.24641794  0.49150434  0.84568680    -0.12600
C653        C  0.21986406  0.39323234  0.83209473    -0.11000
C654        C  0.25663923  0.36736726  0.83206736    -0.12600
C655        C  0.15789267  0.43204359  0.78872382    -0.11000
C656        C  0.14958413  0.43250991  0.75184755    -0.12600
C657        C  0.32294897  0.53361781  0.58170023    -0.11000
C658        C  0.35971674  0.55952691  0.58163370    -0.12600
C659        C  0.36911979  0.63124518  0.59145632    -0.11000
C660        C  0.33328105  0.65765143  0.59538748    -0.12600
C661        C  0.93013966  0.57141661  0.73420883    -0.11000
C662        C  0.92161566  0.57191546  0.69734689    -0.12600
C663        C  0.74388996  0.34489645  0.88968936    -0.11000
C664        C  0.70902880  0.37187742  0.89407336    -0.12600
C665        C  0.75834827  0.46887632  0.90480260    -0.11000
C666        C  0.72089318  0.44343689  0.90449174    -0.12600
C667        C  0.64891827  0.40447690  0.48415689    -0.11000
C668        C  0.65729681  0.40517254  0.94727441    -0.12600
C669        C  0.82235245  0.63621329  0.65392858    -0.11000
C670        C  0.85918575  0.61038923  0.65395687    -0.12600
C671        C  0.86905292  0.53862828  0.64449745    -0.11000
C672        C  0.83338660  0.51209982  0.64040091    -0.12600
C673        C  0.02552067  0.96346455  0.09624885     0.88700
C674        C  0.98002282  0.95666369  0.12926427    -0.51500
C675        C  0.94863393  0.92081392  0.12475818     0.11700
C676        C  0.96672272  0.89500148  0.08672130     0.22600
C677        C  0.06047957  0.92322161  0.09819424    -0.52200
C678        C  0.03039387  0.88741913  0.09299209     0.11800
C679        C  0.99414084  0.96212640  0.05512087    -0.51800
C680        C  0.96365261  0.92649149  0.04939859     0.12300
H681        H  0.97286347  0.97828705  0.15402433     0.16900
H682        H  0.94239852  0.86588259  0.08202866     0.02600
H683        H  0.10597891  0.92309588  0.10225503     0.17200
H684        H  0.99830837  0.98679881  0.03139233     0.16900
C685        C  0.55458406  0.79806747  0.34612220     0.88700
C686        C  0.58652415  0.79703767  0.30511664    -0.51500
C687        C  0.61669930  0.76132216  0.29933614     0.11700
C688        C  0.61294940  0.72959181  0.33641690     0.22600
C689        C  0.51931613  0.75784543  0.34750904    -0.52200
C690        C  0.54920905  0.72205074  0.34223667     0.11800
C691        C  0.59965257  0.79088871  0.37940647    -0.51800
C692        C  0.63084902  0.75500990  0.37473738     0.12300
H693        H  0.58259606  0.82175213  0.28142711     0.16900
H694        H  0.63704829  0.70043086  0.33159306     0.02600
H695        H  0.47378652  0.75770571  0.35142389     0.17200
H696        H  0.60666325  0.81225982  0.40439763     0.16900
O697        O  0.65145314  0.78493482  0.23417789    -0.76200
C698        C  0.78539414  0.81800940  0.13933358     0.84800
O699        O  0.54338996  0.80056274  0.12171423    -0.77400
O700        O  0.69933332  0.73926762  0.04537877    -0.78800
O701        O  0.74277233  0.66778788  0.18187644    -0.78600
O702        O  0.64623422  0.71617384  0.24547560    -0.77300
Zn703      Zn  0.66927973  0.79562662  0.17402164     1.55700
O704        O  0.77370335  0.68915181  0.11926460    -0.78700
Cd705      Cd  0.66541789  0.69783893  0.18533166     1.59700
Cd706      Cd  0.58791870  0.74435664  0.11264610     1.59600
O707        O  0.60588659  0.65513287  0.16807970    -0.78600
O708        O  0.66157427  0.74534879  0.14414859    -1.89200
Cd709      Cd  0.72677216  0.74154790  0.10560272     1.59900
O710        O  0.54264829  0.68900608  0.12809213    -0.78600
O711        O  0.78302076  0.79045376  0.11181998    -0.77300
C712        C  0.56150861  0.83414230  0.13779180     0.85300
C713        C  0.64108933  0.75338524  0.25800451     0.84900
O714        O  0.74631649  0.82235885  0.16600096    -0.76200
C715        C  0.77744920  0.66590643  0.15176627     0.85700
O716        O  0.60936809  0.83559728  0.15561976    -0.76300
C717        C  0.56019383  0.65590433  0.14727256     0.85900
C718        C  0.65086859  0.73945263  0.02849030     0.86200
O719        O  0.60515318  0.74154567  0.04921345    -0.78700
C720        C  0.67843973  0.74338431  0.40459062    -0.00200
O721        O  0.93433056  0.88275136  0.49387891    -0.76200
C722        C  0.80318523  0.83211326  0.40194490     0.84800
O723        O  0.03769590  0.85671539  0.37769425    -0.77400
O724        O  0.87986576  0.90562851  0.29554806    -0.78800
O725        O  0.82973886  0.98899278  0.41687214    -0.78600
O726        O  0.92628276  0.95180688  0.48605915    -0.77300
Zn727      Zn  0.91480171  0.86438162  0.43470097     1.55700
O728        O  0.79587715  0.95690606  0.36180223    -0.78700
Cd729      Cd  0.90847095  0.96227579  0.42465684     1.59700
Cd730      Cd  0.99127992  0.91151903  0.36267402     1.59600
O731        O  0.96900707  0.00406847  0.40571394    -0.78600
O732        O  0.91756420  0.91048752  0.39432756    -1.89200
Cd733      Cd  0.85230275  0.90783726  0.35575411     1.59900
O734        O  0.03483358  0.96819149  0.37231578    -0.78600
O735        O  0.80541160  0.85557438  0.36952457    -0.77300
C736        C  0.01978772  0.82381368  0.39706112     0.85300
C737        C  0.93834998  0.91943368  0.50815657     0.84900
O738        O  0.83925377  0.83409072  0.43120268    -0.76200
C739        C  0.79198807  0.98434355  0.38937655     0.85700
O740        O  0.97389419  0.82356167  0.41768942    -0.76300
C741        C  0.01695415  0.00201732  0.38805467     0.85900
C742        C  0.92829524  0.90638738  0.27855538     0.86200
O743        O  0.97401442  0.90897009  0.29918736    -0.78700
C744        C  0.90071075  0.90982992  0.15458458    -0.00200
C745        C  0.52519081  0.87291854  0.13988241     0.88700
C746        C  0.48028083  0.88001334  0.10652862    -0.51500
C747        C  0.44885903  0.91580245  0.11111632     0.11700
C748        C  0.46647543  0.94129913  0.14942553     0.22600
C749        C  0.56029617  0.91319404  0.13853214    -0.52200
C750        C  0.53022953  0.94894553  0.14370483     0.11800
C751        C  0.49311179  0.87391984  0.18082889    -0.51800
C752        C  0.46278543  0.90958484  0.18655549     0.12300
H753        H  0.47342049  0.85856670  0.08157594     0.16900
H754        H  0.44216412  0.97039790  0.15410725     0.02600
H755        H  0.60584089  0.91340392  0.13470430     0.17200
H756        H  0.49710120  0.84923560  0.20454644     0.16900
C757        C  0.05370796  0.70726510  0.39000951     0.88700
C758        C  0.08573464  0.70807145  0.43092394    -0.51500
C759        C  0.11644674  0.74356228  0.43665438     0.11700
C760        C  0.11309812  0.77537426  0.39958116     0.22600
C761        C  0.01901768  0.74771442  0.38869067    -0.52200
C762        C  0.04940468  0.78333035  0.39386435     0.11800
C763        C  0.09875074  0.71415537  0.35665380    -0.51800
C764        C  0.13054783  0.74980095  0.36125538     0.12300
H765        H  0.08150716  0.68336799  0.45461039     0.16900
H766        H  0.13771787  0.80435118  0.40430214     0.02600
H767        H  0.97349712  0.74814996  0.38477187     0.17200
H768        H  0.10546649  0.69265324  0.33172672     0.16900
O769        O  0.15179703  0.71933050  0.00137938    -0.76200
C770        C  0.28536832  0.68511919  0.09637411     0.84800
O771        O  0.04403044  0.70230294  0.11490847    -0.77400
O772        O  0.19984751  0.76406801  0.19052786    -0.78800
O773        O  0.24290444  0.83571458  0.05417758    -0.78600
O774        O  0.14589858  0.78816968  0.49090696    -0.77300
Zn775      Zn  0.16946827  0.70792525  0.06150772     1.55700
O776        O  0.27447376  0.81381636  0.11638407    -0.78700
Cd777      Cd  0.16553484  0.80574267  0.05109023     1.59700
Cd778      Cd  0.08824931  0.75873286  0.12360736     1.59600
O779        O  0.10632882  0.84823993  0.06886100    -0.78600
O780        O  0.16180746  0.75790554  0.09187927    -1.89200
Cd781      Cd  0.22711750  0.76158698  0.13025561     1.59900
O782        O  0.04266762  0.81392088  0.10822840    -0.78600
O783        O  0.28291962  0.71251366  0.12403644    -0.77300
C784        C  0.06180098  0.66898357  0.09817175     0.85300
C785        C  0.14107128  0.75111151  0.47795285     0.84900
O786        O  0.24648504  0.68101873  0.06951768    -0.76200
C787        C  0.27796793  0.83728488  0.08401377     0.85700
O788        O  0.10924519  0.66785044  0.07965637    -0.76300
C789        C  0.06042149  0.84721469  0.08942801     0.85900
C790        C  0.15143078  0.76395252  0.20753722     0.86200
O791        O  0.10565545  0.76177012  0.18694869    -0.78700
C792        C  0.17863206  0.76064235  0.33149471    -0.00200
O793        O  0.33333704  0.84820745  0.31992350    -0.76200
C794        C  0.43841478  0.91750037  0.22791474     0.84800
O795        O  0.53644538  0.87046780  0.36415376    -0.77400
O796        O  0.47340746  0.68253770  0.31793673    -0.78800
O797        O  0.30546328  0.98114179  0.36666316    -0.78600
O798        O  0.29676413  0.87982829  0.37430313    -0.77300
Zn799      Zn  0.41032823  0.87515445  0.31191521     1.55700
O800        O  0.33645526  0.00276851  0.30414007    -0.78700
Cd801      Cd  0.35275378  0.92893946  0.38035688     1.59700
Cd802      Cd  0.49167621  0.92654310  0.37323185     1.59600
O803        O  0.38029357  0.93129035  0.44052518    -0.78600
O804        O  0.41795988  0.92542249  0.34178364    -1.89200
Cd805      Cd  0.41400529  0.97299053  0.30065442     1.59900
O806        O  0.47448456  0.92916433  0.43666957    -0.78600
O807        O  0.43322202  0.95470368  0.24046831    -0.77300
C808        C  0.51829058  0.83684926  0.34819195     0.85300
C809        C  0.29435977  0.85235371  0.34671348     0.84900
O810        O  0.42813936  0.88593061  0.25174493    -0.76200
C811        C  0.30166838  0.00444513  0.33420276     0.85700
O812        O  0.47038965  0.83534886  0.33041577    -0.76300
C813        C  0.42876214  0.93113755  0.45739823     0.85900
C814        C  0.51914914  0.01510780  0.33869835     0.86200
O815        O  0.53675295  0.98199158  0.35782392    -0.78700
C816        C  0.40107516  0.92688052  0.08126565    -0.00200
C817        C  0.43068624  0.93265928  0.50172465    -0.11000
C818        C  0.42217405  0.93183662  0.03858753    -0.12600
C819        C  0.21063278  0.79837187  0.34163778    -0.11000
C820        C  0.24642038  0.82484051  0.34568909    -0.12600
C821        C  0.21986627  0.72656861  0.33209610    -0.11000
C822        C  0.25664171  0.70070294  0.33206844    -0.12600
C823        C  0.15789511  0.76537962  0.28872478    -0.11000
C824        C  0.14958476  0.76584403  0.25184840    -0.12600
C825        C  0.32295044  0.86694322  0.08170355    -0.11000
C826        C  0.35971751  0.89285315  0.08163655    -0.12600
C827        C  0.36911748  0.96457178  0.09145763    -0.11000
C828        C  0.33327787  0.99097763  0.09538905    -0.12600
C829        C  0.93014317  0.90474818  0.23420845    -0.11000
C830        C  0.92161704  0.90524469  0.19734625    -0.12600
C831        C  0.74389503  0.67823631  0.38968618    -0.11000
C832        C  0.70903366  0.70521682  0.39407128    -0.12600
C833        C  0.75834869  0.80221667  0.40480043    -0.11000
C834        C  0.72089474  0.77677662  0.40448962    -0.12600
C835        C  0.64891351  0.73780639  0.98415890    -0.11000
C836        C  0.65730126  0.73851035  0.44727334    -0.12600
C837        C  0.82235060  0.96954021  0.15392912    -0.11000
C838        C  0.85918444  0.94371671  0.15395667    -0.12600
C839        C  0.86905505  0.87195547  0.14449759    -0.11000
C840        C  0.83338987  0.84542585  0.14040009    -0.12600
C841        C  0.02552109  0.96346835  0.59624708     0.88700
C842        C  0.98002105  0.95667327  0.62927080    -0.51500
C843        C  0.94863340  0.92081633  0.62475695     0.11700
C844        C  0.96672061  0.89500638  0.58672161     0.22600
C845        C  0.06047708  0.92322662  0.59819335    -0.52200
C846        C  0.03039327  0.88742425  0.59299120     0.11800
C847        C  0.99413900  0.96213152  0.55512132    -0.51800
C848        C  0.96365105  0.92649669  0.54939870     0.12300
H849        H  0.97286201  0.97829358  0.65402768     0.16900
H850        H  0.94239587  0.86588919  0.58202902     0.02600
H851        H  0.10597663  0.92310161  0.60225357     0.17200
H852        H  0.99830727  0.98680368  0.53139303     0.16900
C853        C  0.55458237  0.79806538  0.84612364     0.88700
C854        C  0.58652206  0.79703660  0.80511846    -0.51500
C855        C  0.61669817  0.76131968  0.79933699     0.11700
C856        C  0.61294548  0.72959193  0.83641796     0.22600
C857        C  0.51931355  0.75784345  0.84750943    -0.52200
C858        C  0.54920834  0.72204768  0.84223664     0.11800
C859        C  0.59964978  0.79088640  0.87940766    -0.51800
C860        C  0.63084722  0.75500627  0.87473840     0.12300
H861        H  0.58259415  0.82175238  0.78142866     0.16900
H862        H  0.63704534  0.70042795  0.83159407     0.02600
H863        H  0.47378267  0.75770294  0.85142305     0.17200
H864        H  0.60666014  0.81225784  0.90440022     0.16900
O865        O  0.65145105  0.78493491  0.73417898    -0.76200
C866        C  0.78539083  0.81801568  0.63933468     0.84800
O867        O  0.54339042  0.80056575  0.62170992    -0.77400
O868        O  0.69933591  0.73927300  0.54537789    -0.78800
O869        O  0.74277226  0.66779167  0.68187407    -0.78600
O870        O  0.64623334  0.71617383  0.74547547    -0.77300
Zn871      Zn  0.66927761  0.79562929  0.67402259     1.55700
O872        O  0.77370638  0.68915872  0.61926395    -0.78700
Cd873      Cd  0.66541723  0.69784156  0.68533035     1.59700
Cd874      Cd  0.58791901  0.74435921  0.61264376     1.59600
O875        O  0.60588584  0.65513591  0.66807782    -0.78600
O876        O  0.66157342  0.74535218  0.64414801    -1.89200
Cd877      Cd  0.72677240  0.74155342  0.60560271     1.59900
O878        O  0.54264773  0.68900889  0.62808988    -0.78600
O879        O  0.78301825  0.79046069  0.61182136    -0.77300
C880        C  0.56150665  0.83414452  0.63779061     0.85300
C881        C  0.64108767  0.75338544  0.75800495     0.84900
O882        O  0.74631323  0.82236440  0.66600278    -0.76200
C883        C  0.77745094  0.66591188  0.65176555     0.85700
O884        O  0.60936484  0.83559857  0.65562101    -0.76300
C885        C  0.56019375  0.65590677  0.64727093     0.85900
C886        C  0.65087178  0.73945637  0.52848924     0.86200
O887        O  0.60515565  0.74154758  0.54921114    -0.78700
C888        C  0.67843596  0.74337978  0.90459251    -0.00200
O889        O  0.93432992  0.88274689  0.99387962    -0.76200
C890        C  0.80318466  0.83210634  0.90194689     0.84800
O891        O  0.03769300  0.85671131  0.87769430    -0.77400
O892        O  0.87986100  0.90562565  0.79554898    -0.78800
O893        O  0.82973574  0.98898758  0.91687342    -0.78600
O894        O  0.92628218  0.95180250  0.98605979    -0.77300
Zn895      Zn  0.91479990  0.86437680  0.93470238     1.55700
O896        O  0.79587148  0.95689791  0.86180605    -0.78700
Cd897      Cd  0.90846881  0.96227147  0.92465772     1.59700
Cd898      Cd  0.99127702  0.91151505  0.86267501     1.59600
O899        O  0.96900507  0.00406448  0.90571411    -0.78600
O900        O  0.91756158  0.91048277  0.89432896    -1.89200
Cd901      Cd  0.85229959  0.90783109  0.85575599     1.59900
O902        O  0.03483205  0.96818701  0.87231705    -0.78600
O903        O  0.80541136  0.85556659  0.86952592    -0.77300
C904        C  0.01978553  0.82380940  0.89706148     0.85300
C905        C  0.93835002  0.91942902  0.00815709     0.84900
O906        O  0.83925234  0.83408501  0.93120502    -0.76200
C907        C  0.79198330  0.98433685  0.88937950     0.85700
O908        O  0.97389243  0.82355762  0.91769061    -0.76300
C909        C  0.01695287  0.00201300  0.88805582     0.85900
C910        C  0.92829123  0.90638616  0.77855654     0.86200
O911        O  0.97400960  0.90896806  0.79918826    -0.78700
C912        C  0.90071018  0.90983558  0.65458506    -0.00200
C913        C  0.52518956  0.87292156  0.63988125     0.88700
C914        C  0.48027893  0.88001561  0.60652628    -0.51500
C915        C  0.44885852  0.91580613  0.61111597     0.11700
C916        C  0.46647361  0.94130325  0.64942583     0.22600
C917        C  0.56029528  0.91319641  0.63853117    -0.52200
C918        C  0.53022954  0.94894748  0.64370410     0.11800
C919        C  0.49310964  0.87392000  0.68083034    -0.51800
C920        C  0.46278393  0.90958727  0.68655417     0.12300
H921        H  0.47342031  0.85857043  0.58157440     0.16900
H922        H  0.44216486  0.97040001  0.65410860     0.02600
H923        H  0.60583888  0.91340566  0.63470244     0.17200
H924        H  0.49709674  0.84923743  0.70454633     0.16900
C925        C  0.05370799  0.70726107  0.89001116     0.88700
C926        C  0.08573466  0.70806623  0.93092621    -0.51500
C927        C  0.11644650  0.74355850  0.93665409     0.11700
C928        C  0.11309728  0.77537174  0.89958089     0.22600
C929        C  0.01900913  0.74770975  0.88869136    -0.52200
C930        C  0.04940423  0.78332610  0.89386484     0.11800
C931        C  0.09874926  0.71414944  0.85665121    -0.51800
C932        C  0.13054520  0.74979797  0.86125542     0.12300
H933        H  0.08150883  0.68336423  0.95461187     0.16900
H934        H  0.13771528  0.80434618  0.90430015     0.02600
H935        H  0.97349289  0.74814424  0.88477326     0.17200
H936        H  0.10546389  0.69264892  0.83172628     0.16900
O937        O  0.15179707  0.71933474  0.50137934    -0.76200
C938        C  0.28537098  0.68512627  0.59637243     0.84800
O939        O  0.04403016  0.70230848  0.61490522    -0.77400
O940        O  0.19984733  0.76407242  0.69052685    -0.78800
O941        O  0.24290350  0.83572072  0.55417435    -0.78600
O942        O  0.14589853  0.78816546  0.99090779    -0.77300
Zn943      Zn  0.16946924  0.70792989  0.56150748     1.55700
O944        O  0.27447219  0.81382492  0.61638176    -0.78700
Cd945      Cd  0.16553464  0.80574784  0.55108872     1.59700
Cd946      Cd  0.08824971  0.75873757  0.62360550     1.59600
O947        O  0.10632757  0.84824506  0.56885909    -0.78600
O948        O  0.16180825  0.75791079  0.59187792    -1.89200
Cd949      Cd  0.22711837  0.76159392  0.63025396     1.59900
O950        O  0.04266800  0.81392593  0.60822776    -0.78600
O951        O  0.28292291  0.71252191  0.62403371    -0.77300
C952        C  0.06180150  0.66898836  0.59817070     0.85300
C953        C  0.14107146  0.75110792  0.97795302     0.84900
O954        O  0.24648663  0.68102427  0.56951714    -0.76200
C955        C  0.27796652  0.83729227  0.58401111     0.85700
O956        O  0.10924720  0.66785440  0.57965691    -0.76300
C957        C  0.06042081  0.84721969  0.58942651     0.85900
C958        C  0.15143064  0.76395463  0.70753585     0.86200
O959        O  0.10565532  0.76177207  0.68694724    -0.78700
C960        C  0.17862940  0.76063926  0.83149372    -0.00200
O961        O  0.33333493  0.84820475  0.81992150    -0.76200
C962        C  0.43841297  0.91750106  0.72791406     0.84800
O963        O  0.53644331  0.87046570  0.86415581    -0.77400
O964        O  0.47340588  0.68253557  0.81793644    -0.78800
O965        O  0.30546128  0.98113937  0.86666195    -0.78600
O966        O  0.29676065  0.87982580  0.87430053    -0.77300
Zn967      Zn  0.41032693  0.87515236  0.81191381     1.55700
O968        O  0.33645371  0.00276662  0.80413917    -0.78700
Cd969      Cd  0.35275092  0.92893664  0.88035580     1.59700
Cd970      Cd  0.49167328  0.92654060  0.87323233     1.59600
O971        O  0.38029004  0.93128587  0.94052472    -0.78600
O972        O  0.41795758  0.92542014  0.84178294    -1.89200
Cd973      Cd  0.41400333  0.97298874  0.80065425     1.59900
O974        O  0.47448112  0.92916122  0.93666979    -0.78600
O975        O  0.43321960  0.95470348  0.74046843    -0.77300
C976        C  0.51828848  0.83684697  0.84819291     0.85300
C977        C  0.29435747  0.85235120  0.84671095     0.84900
O978        O  0.42813841  0.88593011  0.75174376    -0.76200
C979        C  0.30166642  0.00444281  0.83420186     0.85700
O980        O  0.47038933  0.83534736  0.83041524    -0.76300
C981        C  0.42875774  0.93113321  0.95739843     0.85900
C982        C  0.51914689  0.01510562  0.83869864     0.86200
O983        O  0.53675058  0.98198871  0.85782500    -0.78700
C984        C  0.40107588  0.92688639  0.58126434    -0.00200
C985        C  0.43068173  0.93265367  0.00172482    -0.11000
C986        C  0.42217703  0.93184258  0.53858680    -0.12600
C987        C  0.21063047  0.79836900  0.84163625    -0.11000
C988        C  0.24641776  0.82483740  0.84568655    -0.12600
C989        C  0.21986398  0.72656576  0.83209479    -0.11000
C990        C  0.25663947  0.70070049  0.83206730    -0.12600
C991        C  0.15789270  0.76537698  0.78872373    -0.11000
C992        C  0.14958363  0.76584329  0.75184753    -0.12600
C993        C  0.32294868  0.86695097  0.58170005    -0.11000
C994        C  0.35971647  0.89286018  0.58163354    -0.12600
C995        C  0.36911952  0.96457860  0.59145613    -0.11000
C996        C  0.33328128  0.99098480  0.59538759    -0.12600
C997        C  0.93013919  0.90474995  0.73420888    -0.11000
C998        C  0.92161558  0.90524877  0.69734699    -0.12600
C999        C  0.74388968  0.67822985  0.88968928    -0.11000
C1000       C  0.70902848  0.70521074  0.89407315    -0.12600
C1001       C  0.75834808  0.80220961  0.90480269    -0.11000
C1002       C  0.72089339  0.77677033  0.90449177    -0.12600
C1003       C  0.64891809  0.73781047  0.48415693    -0.11000
C1004       C  0.65729691  0.73850593  0.94727444    -0.12600
C1005       C  0.82235202  0.96954684  0.65392827    -0.11000
C1006       C  0.85918565  0.94372259  0.65395691    -0.12600
C1007       C  0.86905282  0.87196156  0.64449746    -0.11000
C1008       C  0.83338644  0.84543308  0.64040110    -0.12600
loop_ 
_geom_bond_atom_site_label_1 
_geom_bond_atom_site_label_2 
_geom_bond_distance 
_geom_bond_site_symmetry_2 
_ccdc_geom_bond_type 
C1            C2   1.527   1_455  S
C1            C7   1.524   1_455  S
C1            C5   1.532       .  S
C1          C448   1.514       .  S
C2            H9   1.086       .  S
C2            C3   1.378       .  D
C3            C4   1.560       .  S
C3           C72   1.523       .  S
C4            C8   1.548       .  S
C4            C6   1.542   1_655  S
C4           H10   1.110       .  S
C5           H11   1.087       .  S
C5            C6   1.364       .  D
C6          C117   1.478       .  S
C7           H12   1.087       .  S
C7            C8   1.367       .  D
C8          C233   1.484       .  S
C13          C14   1.526       .  S
C13          C19   1.528       .  S
C13          C17   1.534       .  S
C13         C136   1.514       .  S
C14          H21   1.087       .  S
C14          C15   1.366       .  D
C15          C16   1.548       .  S
C15          C41   1.483       .  S
C16          C20   1.560       .  S
C16          C18   1.541       .  S
C16          H22   1.110       .  S
C17          H23   1.087       .  S
C17          C18   1.363       .  D
C18         C814   1.480       .  S
C19          H24   1.086       .  S
C19          C20   1.378       .  D
C20          C48   1.524       .  S
O25          C41   1.274       .  A
O25         Zn31   2.006       .  S
C26          O42   1.275       .  A
C26          O39   1.271       .  A
C26         C168   1.437       .  S
O27          C40   1.281       .  A
O27         Cd34   2.114       .  S
O28          C46   1.272       .  A
O28         Cd37   2.054       .  S
O29          C43   1.275   1_545  A
O29         Cd33   2.076       .  S
O30          C41   1.275       .  A
O30         Cd33   2.095       .  S
Zn31         O42   2.030       .  S
Zn31         O44   1.991       .  S
Zn31         O36   1.909       .  S
O32          C43   1.271   1_545  A
O32         Cd37   2.050       .  S
Cd33         O35   2.053   1_545  S
Cd33         O36   1.991       .  S
Cd34         O38   2.116       .  S
Cd34         O47   2.092       .  S
Cd34         O36   2.023       .  S
O35          C45   1.275       .  A
O36         Cd37   1.990       .  S
Cd37         O39   2.070       .  S
O38          C45   1.280   1_545  A
C40          C73   1.514       .  S
C40          O44   1.274       .  A
C43         C837   1.428       .  S
C45         C750   1.479       .  S
C46          O47   1.276       .  A
C46         C163   1.434   1_554  S
C48         C160   1.470       .  S
C48         C162   1.467       .  S
C48         C164   1.469       .  S
O49          C65   1.277       .  A
O49         Zn55   2.068       .  S
C50          O66   1.278       .  A
C50          O63   1.270       .  A
C50         C161   1.431       .  S
O51          C64   1.280       .  A
O51         Cd58   2.115   1_455  S
O52          C70   1.272       .  A
O52         Cd61   2.053       .  S
O53          C67   1.273       .  A
O53         Cd57   2.067       .  S
O54          C65   1.273       .  A
O54         Cd57   2.044       .  S
Zn55         O66   2.041       .  S
Zn55         O68   2.004       .  S
Zn55         O60   1.939       .  S
O56          C67   1.272       .  A
O56         Cd61   2.077       .  S
Cd57         O59   2.042       .  S
Cd57         O60   1.962       .  S
Cd58         O62   2.117   1_655  S
Cd58         O71   2.094       .  S
Cd58         O60   2.024       .  S
O59          C69   1.274   1_655  A
O60         Cd61   1.990       .  S
Cd61         O63   2.045       .  S
O62          C69   1.282       .  A
C64          C90   1.480       .  S
C64          O68   1.275   1_455  A
C65         C176   1.484       .  S
C67         C495   1.436       .  S
C69         C421   1.513       .  S
C70          O71   1.277       .  A
C70         C157   1.435       .  S
C72         C158   1.470       .  S
C72         C166   1.465       .  S
C72         C167   1.470       .  S
C73          C74   1.527       .  S
C73          C79   1.526       .  S
C73          C77   1.533       .  S
C74          H81   1.086       .  S
C74          C75   1.378       .  D
C75          C76   1.559       .  S
C75         C144   1.523       .  S
C76          C80   1.549       .  S
C76          C78   1.541       .  S
C76          H82   1.110       .  S
C77          H83   1.087       .  S
C77          C78   1.363       .  D
C78         C381   1.479       .  S
C79          H84   1.087       .  S
C79          C80   1.367       .  D
C80         C122   1.483       .  S
C85          C86   1.525       .  S
C85          C91   1.527       .  S
C85          C89   1.534       .  S
C85         C741   1.513       .  S
C86          H93   1.087       .  S
C86          C87   1.366       .  D
C87          C88   1.549       .  S
C87         C113   1.482       .  S
C88          C92   1.560       .  S
C88          C90   1.542       .  S
C88          H94   1.110       .  S
C89          H95   1.087   1_455  S
C89          C90   1.363       .  D
C91          H96   1.086       .  S
C91          C92   1.378       .  D
C92         C120   1.523       .  S
O97         C281   1.274   1_554  A
O97        Zn103   2.008       .  S
C98         O114   1.275       .  A
C98         O111   1.271       .  A
C98         C828   1.438   1_545  S
O99         C112   1.281       .  A
O99        Cd106   2.113       .  S
O100        C118   1.272       .  A
O100       Cd109   2.053       .  S
O101        C115   1.275       .  A
O101       Cd105   2.073       .  S
O102        C113   1.274       .  A
O102       Cd273   2.091       .  S
Zn103       O114   2.033       .  S
Zn103       O116   1.994       .  S
Zn103       O108   1.910       .  S
O104        C115   1.271       .  A
O104       Cd109   2.050       .  S
Cd105       O107   2.049       .  S
Cd105       O270   2.091   1_554  S
Cd105       O108   1.990       .  S
Cd106       O110   2.117       .  S
Cd106       O119   2.091       .  S
Cd106       O108   2.023       .  S
O107        C117   1.275       .  A
O108       Cd109   1.990       .  S
Cd109       O111   2.069       .  S
O110        C117   1.280       .  A
C112        C673   1.514   1_545  S
C112        O116   1.275       .  A
C113        O265   1.274       .  A
C115        C153   1.427       .  S
C118        O119   1.276       .  A
C118        C152   1.434       .  S
C120        C147   1.471       .  S
C120        C149   1.465       .  S
C120        C151   1.469       .  S
O121        C137   1.275       .  A
O121       Zn127   2.031       .  S
C122        O138   1.274       .  A
C122        O135   1.275       .  A
O123        C136   1.281       .  A
O123       Cd130   2.114       .  S
O124        C814   1.275       .  A
O124       Cd805   2.055   1_545  S
O125        C139   1.271       .  A
O125       Cd129   2.050       .  S
O126        C137   1.271       .  A
O126       Cd129   2.070       .  S
Zn127       O138   2.007       .  S
Zn127       O140   1.991       .  S
Zn127       O132   1.909       .  S
O128        C139   1.276       .  A
O128       Cd133   2.077       .  S
Cd129       O131   2.053       .  S
Cd129       O132   1.990       .  S
Cd130       O134   2.092       .  S
Cd130       O143   2.116       .  S
Cd130       O132   2.023       .  S
O131        C141   1.272       .  A
O132       Cd133   1.991       .  S
Cd133       O135   2.096       .  S
Cd133       O460   2.055       .  S
O134        C141   1.276       .  A
C136        O140   1.275       .  A
C137        C148   1.438       .  S
C139        C486   1.428       .  S
C141        C145   1.434       .  S
C142        C354   1.480       .  S
C142        O143   1.280       .  A
C142        O460   1.275       .  A
C144        C146   1.469       .  S
C144        C154   1.464       .  S
C144        C155   1.470       .  S
C145        C314   1.206       .  T
C146        C313   1.206       .  T
C147        C148   1.208       .  T
C149        C150   1.203       .  T
C150        C811   1.428       .  S
C151        C152   1.206       .  T
C153        C154   1.203       .  T
C155        C156   1.208       .  T
C156        C434   1.438       .  S
C157        C158   1.207       .  T
C159        C739   1.436   1_545  S
C159        C160   1.207       .  T
C161        C162   1.204       .  T
C163        C332   1.206       .  T
C164        C331   1.206       .  T
C165        C379   1.428       .  S
C165        C166   1.203       .  T
C167        C168   1.208       .  T
C169        C170   1.527   1_455  S
C169        C175   1.524   1_455  S
C169        C173   1.532       .  S
C169        C616   1.514       .  S
C170        H177   1.086       .  S
C170        C171   1.378       .  D
C171        C172   1.560       .  S
C171        C240   1.523       .  S
C172        C176   1.548       .  S
C172        C174   1.542   1_655  S
C172        H178   1.110       .  S
C173        H179   1.087       .  S
C173        C174   1.364       .  D
C174        C285   1.478       .  S
C175        H180   1.087       .  S
C175        C176   1.367       .  D
C181        C182   1.526       .  S
C181        C187   1.529       .  S
C181        C185   1.534       .  S
C181        C304   1.514       .  S
C182        H189   1.087       .  S
C182        C183   1.366       .  D
C183        C184   1.548       .  S
C183        C209   1.483       .  S
C184        C188   1.560       .  S
C184        C186   1.541       .  S
C184        H190   1.110       .  S
C185        H191   1.087       .  S
C185        C186   1.362       .  D
C186        C982   1.480       .  S
C187        H192   1.086       .  S
C187        C188   1.378       .  D
C188        C216   1.524       .  S
O193        C209   1.274       .  A
O193       Zn199   2.006       .  S
C194        O210   1.275       .  A
C194        O207   1.271       .  A
C194        C336   1.437       .  S
O195        C208   1.281       .  A
O195       Cd202   2.114       .  S
O196        C214   1.272       .  A
O196       Cd205   2.054       .  S
O197        C211   1.275   1_545  A
O197       Cd201   2.076       .  S
O198        C209   1.275       .  A
O198       Cd201   2.095       .  S
Zn199       O210   2.030       .  S
Zn199       O212   1.991       .  S
Zn199       O204   1.909       .  S
O200        C211   1.271   1_545  A
O200       Cd205   2.050       .  S
Cd201       O203   2.053   1_545  S
Cd201       O204   1.991       .  S
Cd202       O206   2.116       .  S
Cd202       O215   2.092       .  S
Cd202       O204   2.023       .  S
O203        C213   1.275       .  A
O204       Cd205   1.990       .  S
Cd205       O207   2.070       .  S
O206        C213   1.280   1_545  A
C208        C241   1.514       .  S
C208        O212   1.274       .  A
C211       C1005   1.428       .  S
C213        C918   1.479       .  S
C214        O215   1.276       .  A
C214        C331   1.434       .  S
C216        C328   1.470       .  S
C216        C330   1.467       .  S
C216        C332   1.469       .  S
O217        C233   1.277   1_556  A
O217       Zn223   2.068       .  S
C218        O234   1.278       .  A
C218        O231   1.270       .  A
C218        C329   1.431       .  S
O219        C232   1.280       .  A
O219       Cd226   2.115   1_455  S
O220        C238   1.272       .  A
O220       Cd229   2.053       .  S
O221        C235   1.273       .  A
O221       Cd225   2.067       .  S
O222        C233   1.272   1_556  A
O222       Cd225   2.044       .  S
Zn223       O234   2.041       .  S
Zn223       O236   2.004       .  S
Zn223       O228   1.939       .  S
O224        C235   1.272       .  A
O224       Cd229   2.077       .  S
Cd225       O227   2.042       .  S
Cd225       O228   1.962       .  S
Cd226       O230   2.117   1_655  S
Cd226       O239   2.094       .  S
Cd226       O228   2.024       .  S
O227        C237   1.274   1_655  A
O228       Cd229   1.990       .  S
Cd229       O231   2.045       .  S
O230        C237   1.282       .  A
C232        C258   1.480       .  S
C232        O236   1.275   1_455  A
C235        C663   1.436       .  S
C237        C589   1.513       .  S
C238        O239   1.277       .  A
C238        C325   1.435       .  S
C240        C326   1.470       .  S
C240        C334   1.465       .  S
C240        C335   1.470       .  S
C241        C242   1.527       .  S
C241        C247   1.526       .  S
C241        C245   1.533       .  S
C242        H249   1.086       .  S
C242        C243   1.378       .  D
C243        C244   1.559       .  S
C243        C312   1.523       .  S
C244        C248   1.549       .  S
C244        C246   1.541       .  S
C244        H250   1.110       .  S
C245        H251   1.087       .  S
C245        C246   1.363       .  D
C246        C549   1.479       .  S
C247        H252   1.087       .  S
C247        C248   1.367       .  D
C248        C290   1.483       .  S
C253        C254   1.525       .  S
C253        C259   1.527       .  S
C253        C257   1.534       .  S
C253        C909   1.513       .  S
C254        H261   1.087       .  S
C254        C255   1.366       .  D
C255        C256   1.549       .  S
C255        C281   1.482       .  S
C256        C260   1.560       .  S
C256        C258   1.542       .  S
C256        H262   1.110       .  S
C257        H263   1.087   1_455  S
C257        C258   1.362       .  D
C259        H264   1.086       .  S
C259        C260   1.378       .  D
C260        C288   1.523       .  S
O265       Zn271   2.008       .  S
C266        O282   1.275       .  A
C266        O279   1.271       .  A
C266        C996   1.438   1_545  S
O267        C280   1.281       .  A
O267       Cd274   2.113       .  S
O268        C286   1.272       .  A
O268       Cd277   2.053       .  S
O269        C283   1.275       .  A
O269       Cd273   2.073       .  S
O270        C281   1.274       .  A
Zn271       O282   2.033       .  S
Zn271       O284   1.994       .  S
Zn271       O276   1.910       .  S
O272        C283   1.271       .  A
O272       Cd277   2.050       .  S
Cd273       O275   2.049       .  S
Cd273       O276   1.990       .  S
Cd274       O278   2.117       .  S
Cd274       O287   2.091       .  S
Cd274       O276   2.023       .  S
O275        C285   1.275       .  A
O276       Cd277   1.990       .  S
Cd277       O279   2.069       .  S
O278        C285   1.280       .  A
C280        C841   1.514   1_545  S
C280        O284   1.275       .  A
C283        C321   1.427       .  S
C286        O287   1.276       .  A
C286        C320   1.434       .  S
C288        C315   1.471       .  S
C288        C317   1.465       .  S
C288        C319   1.469       .  S
O289        C305   1.275       .  A
O289       Zn295   2.031       .  S
C290        O306   1.274       .  A
C290        O303   1.275       .  A
O291        C304   1.281       .  A
O291       Cd298   2.114       .  S
O292        C982   1.275       .  A
O292       Cd973   2.055   1_545  S
O293        C307   1.271       .  A
O293       Cd297   2.050       .  S
O294        C305   1.271       .  A
O294       Cd297   2.070       .  S
Zn295       O306   2.007       .  S
Zn295       O308   1.991       .  S
Zn295       O300   1.909       .  S
O296        C307   1.276       .  A
O296       Cd301   2.077       .  S
Cd297       O299   2.053       .  S
Cd297       O300   1.990       .  S
Cd298       O302   2.092       .  S
Cd298       O311   2.116       .  S
Cd298       O300   2.023       .  S
O299        C309   1.272       .  A
O300       Cd301   1.991       .  S
Cd301       O628   2.055       .  S
Cd301       O303   2.096       .  S
O302        C309   1.276       .  A
C304        O308   1.275       .  A
C305        C316   1.438       .  S
C307        C654   1.428       .  S
C309        C313   1.434   1_556  S
C310        C522   1.480       .  S
C310        O628   1.275       .  A
C310        O311   1.280       .  A
C312        C314   1.469       .  S
C312        C322   1.464       .  S
C312        C323   1.470       .  S
C315        C316   1.208       .  T
C317        C318   1.203       .  T
C318        C979   1.428       .  S
C319        C320   1.206       .  T
C321        C322   1.203       .  T
C323        C324   1.208       .  T
C324        C602   1.438       .  S
C325        C326   1.207       .  T
C327        C907   1.436   1_545  S
C327        C328   1.207       .  T
C329        C330   1.204       .  T
C333        C547   1.428       .  S
C333        C334   1.203       .  T
C335        C336   1.208       .  T
C337        C338   1.527   1_455  S
C337        C343   1.524   1_455  S
C337        C341   1.532       .  S
C337        C784   1.514       .  S
C338        H345   1.086       .  S
C338        C339   1.378       .  D
C339        C340   1.560       .  S
C339        C408   1.523       .  S
C340        C344   1.548       .  S
C340        C342   1.542   1_655  S
C340        H346   1.110       .  S
C341        H347   1.087       .  S
C341        C342   1.364       .  D
C342        C453   1.478       .  S
C343        H348   1.087       .  S
C343        C344   1.367       .  D
C344        C569   1.484       .  S
C349        C350   1.526       .  S
C349        C355   1.528       .  S
C349        C353   1.534       .  S
C349        C472   1.514       .  S
C350        H357   1.087       .  S
C350        C351   1.366       .  D
C351        C352   1.548       .  S
C351        C377   1.483       .  S
C352        C356   1.560       .  S
C352        C354   1.541       .  S
C352        H358   1.110       .  S
C353        H359   1.087       .  S
C353        C354   1.363       .  D
C355        H360   1.086       .  S
C355        C356   1.378       .  D
C356        C384   1.524       .  S
O361        C377   1.274       .  A
O361       Zn367   2.006       .  S
C362        O378   1.275       .  A
C362        O375   1.271       .  A
C362        C504   1.437       .  S
O363        C376   1.281       .  A
O363       Cd370   2.114       .  S
O364        C382   1.272       .  A
O364       Cd373   2.054       .  S
O365        C379   1.275       .  A
O365       Cd369   2.076       .  S
O366        C377   1.275       .  A
O366       Cd369   2.095       .  S
Zn367       O378   2.030       .  S
Zn367       O380   1.991       .  S
Zn367       O372   1.909       .  S
O368        C379   1.271       .  A
O368       Cd373   2.050       .  S
Cd369       O371   2.053       .  S
Cd369       O372   1.991       .  S
Cd370       O374   2.116       .  S
Cd370       O383   2.092       .  S
Cd370       O372   2.023       .  S
O371        C381   1.275       .  A
O372       Cd373   1.990       .  S
Cd373       O375   2.070       .  S
O374        C381   1.280       .  A
C376        C409   1.514       .  S
C376        O380   1.274       .  A
C382        O383   1.276       .  A
C382        C499   1.434   1_554  S
C384        C496   1.470       .  S
C384        C498   1.467       .  S
C384        C500   1.469       .  S
O385        C401   1.277       .  A
O385       Zn391   2.068       .  S
C386        O402   1.278       .  A
C386        O399   1.270       .  A
C386        C497   1.431       .  S
O387        C400   1.280       .  A
O387       Cd394   2.115   1_455  S
O388        C406   1.272       .  A
O388       Cd397   2.053       .  S
O389        C403   1.273       .  A
O389       Cd393   2.067       .  S
O390        C401   1.272       .  A
O390       Cd393   2.044       .  S
Zn391       O402   2.041       .  S
Zn391       O404   2.004       .  S
Zn391       O396   1.939       .  S
O392        C403   1.272       .  A
O392       Cd397   2.077       .  S
Cd393       O395   2.042       .  S
Cd393       O396   1.962       .  S
Cd394       O398   2.117   1_655  S
Cd394       O407   2.094       .  S
Cd394       O396   2.024       .  S
O395        C405   1.274   1_655  A
O396       Cd397   1.990       .  S
Cd397       O399   2.045       .  S
O398        C405   1.282       .  A
C400        C426   1.480       .  S
C400        O404   1.275   1_455  A
C401        C512   1.484       .  S
C403        C831   1.436       .  S
C405        C757   1.513       .  S
C406        O407   1.277       .  A
C406        C493   1.435       .  S
C408        C494   1.470       .  S
C408        C502   1.465       .  S
C408        C503   1.470       .  S
C409        C410   1.527       .  S
C409        C415   1.526       .  S
C409        C413   1.533       .  S
C410        H417   1.086       .  S
C410        C411   1.378       .  D
C411        C412   1.559       .  S
C411        C480   1.523       .  S
C412        C416   1.549       .  S
C412        C414   1.541       .  S
C412        H418   1.110       .  S
C413        H419   1.087       .  S
C413        C414   1.363       .  D
C414        C717   1.479       .  S
C415        H420   1.087       .  S
C415        C416   1.367       .  D
C416        C458   1.483       .  S
C421        C422   1.525       .  S
C421        C427   1.527       .  S
C421        C425   1.534       .  S
C422        H429   1.087       .  S
C422        C423   1.366       .  D
C423        C424   1.549       .  S
C423        C449   1.482       .  S
C424        C428   1.560       .  S
C424        C426   1.542       .  S
C424        H430   1.110       .  S
C425        H431   1.087   1_455  S
C425        C426   1.362       .  D
C427        H432   1.086       .  S
C427        C428   1.379       .  D
C428        C456   1.523       .  S
O433        C617   1.274   1_554  A
O433       Zn439   2.008       .  S
C434        O450   1.275       .  A
C434        O447   1.271       .  A
O435        C448   1.281       .  A
O435       Cd442   2.113       .  S
O436        C454   1.272       .  A
O436       Cd445   2.053       .  S
O437        C451   1.275       .  A
O437       Cd441   2.073       .  S
O438        C449   1.274       .  A
O438       Cd609   2.091       .  S
Zn439       O450   2.033       .  S
Zn439       O452   1.994       .  S
Zn439       O444   1.910       .  S
O440        C451   1.271       .  A
O440       Cd445   2.050       .  S
Cd441       O606   2.091   1_554  S
Cd441       O443   2.049       .  S
Cd441       O444   1.990       .  S
Cd442       O446   2.117       .  S
Cd442       O455   2.091       .  S
Cd442       O444   2.023       .  S
O443        C453   1.275       .  A
O444       Cd445   1.990       .  S
Cd445       O447   2.069       .  S
O446        C453   1.280       .  A
C448        O452   1.275       .  A
C449        O601   1.274       .  A
C451        C489   1.427       .  S
C454        O455   1.276       .  A
C454        C488   1.434       .  S
C456        C483   1.471       .  S
C456        C485   1.465       .  S
C456        C487   1.469       .  S
O457        C473   1.275       .  A
O457       Zn463   2.031       .  S
C458        O474   1.274       .  A
C458        O471   1.275       .  A
O459        C472   1.281       .  A
O459       Cd466   2.114       .  S
O461        C475   1.271       .  A
O461       Cd465   2.050       .  S
O462        C473   1.271       .  A
O462       Cd465   2.070       .  S
Zn463       O474   2.007       .  S
Zn463       O476   1.991       .  S
Zn463       O468   1.909       .  S
O464        C475   1.276       .  A
O464       Cd469   2.077       .  S
Cd465       O467   2.053       .  S
Cd465       O468   1.990       .  S
Cd466       O470   2.092       .  S
Cd466       O479   2.116       .  S
Cd466       O468   2.023       .  S
O467        C477   1.272       .  A
O468       Cd469   1.991       .  S
Cd469       O796   2.055       .  S
Cd469       O471   2.096       .  S
O470        C477   1.276       .  A
C472        O476   1.275       .  A
C473        C484   1.438       .  S
C475        C822   1.428       .  S
C477        C481   1.434       .  S
C478        C690   1.480       .  S
C478        O796   1.275       .  A
C478        O479   1.280       .  A
C480        C482   1.469       .  S
C480        C490   1.464       .  S
C480        C491   1.470       .  S
C481        C650   1.206       .  T
C482        C649   1.206       .  T
C483        C484   1.208       .  T
C485        C486   1.203       .  T
C487        C488   1.206       .  T
C489        C490   1.203       .  T
C491        C492   1.208       .  T
C492        C770   1.438       .  S
C493        C494   1.207       .  T
C495        C496   1.207       .  T
C497        C498   1.204       .  T
C499        C668   1.206       .  T
C500        C667   1.206       .  T
C501        C715   1.428       .  S
C501        C502   1.203       .  T
C503        C504   1.208       .  T
C505        C506   1.527   1_455  S
C505        C511   1.524   1_455  S
C505        C509   1.532       .  S
C505        C952   1.514       .  S
C506        H513   1.086       .  S
C506        C507   1.378       .  D
C507        C508   1.560       .  S
C507        C576   1.523       .  S
C508        C512   1.548       .  S
C508        C510   1.542   1_655  S
C508        H514   1.110       .  S
C509        H515   1.087       .  S
C509        C510   1.364       .  D
C510        C621   1.478       .  S
C511        H516   1.087       .  S
C511        C512   1.367       .  D
C517        C518   1.526       .  S
C517        C523   1.528       .  S
C517        C521   1.534       .  S
C517        C640   1.514       .  S
C518        H525   1.087       .  S
C518        C519   1.366       .  D
C519        C520   1.548       .  S
C519        C545   1.483       .  S
C520        C524   1.560       .  S
C520        C522   1.541       .  S
C520        H526   1.110       .  S
C521        H527   1.087       .  S
C521        C522   1.362       .  D
C523        H528   1.086       .  S
C523        C524   1.378       .  D
C524        C552   1.524       .  S
O529        C545   1.274       .  A
O529       Zn535   2.006       .  S
C530        O546   1.275       .  A
C530        O543   1.271       .  A
C530        C672   1.437       .  S
O531        C544   1.281       .  A
O531       Cd538   2.114       .  S
O532        C550   1.272       .  A
O532       Cd541   2.054       .  S
O533        C547   1.275       .  A
O533       Cd537   2.076       .  S
O534        C545   1.275       .  A
O534       Cd537   2.095       .  S
Zn535       O546   2.030       .  S
Zn535       O548   1.991       .  S
Zn535       O540   1.909       .  S
O536        C547   1.271       .  A
O536       Cd541   2.050       .  S
Cd537       O539   2.053       .  S
Cd537       O540   1.991       .  S
Cd538       O542   2.116       .  S
Cd538       O551   2.092       .  S
Cd538       O540   2.023       .  S
O539        C549   1.275       .  A
O540       Cd541   1.990       .  S
Cd541       O543   2.070       .  S
O542        C549   1.280       .  A
C544        C577   1.514       .  S
C544        O548   1.274       .  A
C550        O551   1.276       .  A
C550        C667   1.434       .  S
C552        C664   1.470       .  S
C552        C666   1.467       .  S
C552        C668   1.469       .  S
O553        C569   1.277   1_556  A
O553       Zn559   2.068       .  S
C554        O570   1.278       .  A
C554        O567   1.270       .  A
C554        C665   1.431       .  S
O555        C568   1.280       .  A
O555       Cd562   2.115   1_455  S
O556        C574   1.272       .  A
O556       Cd565   2.053       .  S
O557        C571   1.273       .  A
O557       Cd561   2.067       .  S
O558        C569   1.272   1_556  A
O558       Cd561   2.044       .  S
Zn559       O570   2.041       .  S
Zn559       O572   2.004       .  S
Zn559       O564   1.939       .  S
O560        C571   1.272       .  A
O560       Cd565   2.077       .  S
Cd561       O563   2.042       .  S
Cd561       O564   1.962       .  S
Cd562       O566   2.117   1_655  S
Cd562       O575   2.094       .  S
Cd562       O564   2.024       .  S
O563        C573   1.274   1_655  A
O564       Cd565   1.990       .  S
Cd565       O567   2.045       .  S
O566        C573   1.282       .  A
C568        C594   1.480       .  S
C568        O572   1.275   1_455  A
C571        C999   1.436       .  S
C573        C925   1.513       .  S
C574        O575   1.277       .  A
C574        C661   1.435       .  S
C576        C662   1.470       .  S
C576        C670   1.465       .  S
C576        C671   1.470       .  S
C577        C578   1.527       .  S
C577        C583   1.526       .  S
C577        C581   1.533       .  S
C578        H585   1.086       .  S
C578        C579   1.378       .  D
C579        C580   1.559       .  S
C579        C648   1.523       .  S
C580        C584   1.549       .  S
C580        C582   1.541       .  S
C580        H586   1.110       .  S
C581        H587   1.087       .  S
C581        C582   1.363       .  D
C582        C885   1.479       .  S
C583        H588   1.087       .  S
C583        C584   1.367       .  D
C584        C626   1.483       .  S
C589        C590   1.525       .  S
C589        C595   1.527       .  S
C589        C593   1.534       .  S
C590        H597   1.087       .  S
C590        C591   1.366       .  D
C591        C592   1.549       .  S
C591        C617   1.482       .  S
C592        C596   1.560       .  S
C592        C594   1.542       .  S
C592        H598   1.110       .  S
C593        H599   1.087   1_455  S
C593        C594   1.362       .  D
C595        H600   1.086       .  S
C595        C596   1.378       .  D
C596        C624   1.523       .  S
O601       Zn607   2.008       .  S
C602        O618   1.275       .  A
C602        O615   1.271       .  A
O603        C616   1.281       .  A
O603       Cd610   2.113       .  S
O604        C622   1.272       .  A
O604       Cd613   2.053       .  S
O605        C619   1.275       .  A
O605       Cd609   2.073       .  S
O606        C617   1.274       .  A
Zn607       O618   2.033       .  S
Zn607       O620   1.994       .  S
Zn607       O612   1.910       .  S
O608        C619   1.271       .  A
O608       Cd613   2.050       .  S
Cd609       O611   2.049       .  S
Cd609       O612   1.990       .  S
Cd610       O614   2.117       .  S
Cd610       O623   2.091       .  S
Cd610       O612   2.023       .  S
O611        C621   1.275       .  A
O612       Cd613   1.990       .  S
Cd613       O615   2.069       .  S
O614        C621   1.280       .  A
C616        O620   1.275       .  A
C619        C657   1.427       .  S
C622        O623   1.276       .  A
C622        C656   1.434       .  S
C624        C651   1.471       .  S
C624        C653   1.465       .  S
C624        C655   1.469       .  S
O625        C641   1.275       .  A
O625       Zn631   2.031       .  S
C626        O642   1.274       .  A
C626        O639   1.275       .  A
O627        C640   1.281       .  A
O627       Cd634   2.114       .  S
O629        C643   1.271       .  A
O629       Cd633   2.050       .  S
O630        C641   1.271       .  A
O630       Cd633   2.070       .  S
Zn631       O642   2.007       .  S
Zn631       O644   1.991       .  S
Zn631       O636   1.909       .  S
O632        C643   1.276       .  A
O632       Cd637   2.077       .  S
Cd633       O635   2.053       .  S
Cd633       O636   1.990       .  S
Cd634       O638   2.092       .  S
Cd634       O647   2.116       .  S
Cd634       O636   2.023       .  S
O635        C645   1.272       .  A
O636       Cd637   1.991       .  S
Cd637       O964   2.055       .  S
Cd637       O639   2.096       .  S
O638        C645   1.276       .  A
C640        O644   1.275       .  A
C641        C652   1.438       .  S
C643        C990   1.428       .  S
C645        C649   1.434   1_556  S
C646        C858   1.480       .  S
C646        O964   1.275       .  A
C646        O647   1.280       .  A
C648        C650   1.469       .  S
C648        C658   1.464       .  S
C648        C659   1.470       .  S
C651        C652   1.208       .  T
C653        C654   1.203       .  T
C655        C656   1.206       .  T
C657        C658   1.203       .  T
C659        C660   1.208       .  T
C660        C938   1.438       .  S
C661        C662   1.207       .  T
C663        C664   1.207       .  T
C665        C666   1.204       .  T
C669        C883   1.428       .  S
C669        C670   1.203       .  T
C671        C672   1.208       .  T
C673        C674   1.527   1_455  S
C673        C679   1.524   1_455  S
C673        C677   1.532       .  S
C674        H681   1.086       .  S
C674        C675   1.378       .  D
C675        C676   1.560       .  S
C675        C744   1.523       .  S
C676        C680   1.549       .  S
C676        C678   1.542   1_655  S
C676        H682   1.110       .  S
C677        H683   1.087       .  S
C677        C678   1.364       .  D
C678        C789   1.478       .  S
C679        H684   1.087       .  S
C679        C680   1.367       .  D
C680        C905   1.484       .  S
C685        C686   1.526       .  S
C685        C691   1.529       .  S
C685        C689   1.534       .  S
C685        C808   1.514       .  S
C686        H693   1.087       .  S
C686        C687   1.366       .  D
C687        C688   1.548       .  S
C687        C713   1.483       .  S
C688        C692   1.560       .  S
C688        C690   1.541       .  S
C688        H694   1.110       .  S
C689        H695   1.087       .  S
C689        C690   1.362       .  D
C691        H696   1.086       .  S
C691        C692   1.378       .  D
C692        C720   1.524       .  S
O697        C713   1.274       .  A
O697       Zn703   2.006       .  S
C698        O714   1.275       .  A
C698        O711   1.271       .  A
C698        C840   1.437       .  S
O699        C712   1.281       .  A
O699       Cd706   2.114       .  S
O700        C718   1.272       .  A
O700       Cd709   2.054       .  S
O701        C715   1.275       .  A
O701       Cd705   2.076       .  S
O702        C713   1.275       .  A
O702       Cd705   2.095       .  S
Zn703       O714   2.030       .  S
Zn703       O716   1.991       .  S
Zn703       O708   1.909       .  S
O704        C715   1.271       .  A
O704       Cd709   2.050       .  S
Cd705       O707   2.053       .  S
Cd705       O708   1.991       .  S
Cd706       O710   2.116       .  S
Cd706       O719   2.092       .  S
Cd706       O708   2.023       .  S
O707        C717   1.275       .  A
O708       Cd709   1.990       .  S
Cd709       O711   2.070       .  S
O710        C717   1.280       .  A
C712        C745   1.514       .  S
C712        O716   1.274       .  A
C718        O719   1.276       .  A
C718        C835   1.434   1_554  S
C720        C832   1.469       .  S
C720        C834   1.467       .  S
C720        C836   1.469       .  S
O721        C737   1.277       .  A
O721       Zn727   2.068       .  S
C722        O738   1.278       .  A
C722        O735   1.270       .  A
C722        C833   1.431       .  S
O723        C736   1.280       .  A
O723       Cd730   2.115   1_455  S
O724        C742   1.272       .  A
O724       Cd733   2.053       .  S
O725        C739   1.273       .  A
O725       Cd729   2.067       .  S
O726        C737   1.272       .  A
O726       Cd729   2.044       .  S
Zn727       O738   2.041       .  S
Zn727       O740   2.004       .  S
Zn727       O732   1.939       .  S
O728        C739   1.272       .  A
O728       Cd733   2.077       .  S
Cd729       O731   2.042   1_565  S
Cd729       O732   1.962       .  S
Cd730       O734   2.117   1_655  S
Cd730       O743   2.094       .  S
Cd730       O732   2.024       .  S
O731        C741   1.274   1_655  A
O732       Cd733   1.990       .  S
Cd733       O735   2.045       .  S
O734        C741   1.282   1_565  A
C736        C762   1.480       .  S
C736        O740   1.275   1_455  A
C737        C848   1.484       .  S
C742        O743   1.277       .  A
C742        C829   1.435       .  S
C744        C830   1.470       .  S
C744        C838   1.465       .  S
C744        C839   1.470       .  S
C745        C746   1.527       .  S
C745        C751   1.526       .  S
C745        C749   1.533       .  S
C746        H753   1.086       .  S
C746        C747   1.378       .  D
C747        C748   1.559       .  S
C747        C816   1.523       .  S
C748        C752   1.549       .  S
C748        C750   1.541       .  S
C748        H754   1.110       .  S
C749        H755   1.087       .  S
C749        C750   1.363       .  D
C751        H756   1.087       .  S
C751        C752   1.367       .  D
C752        C794   1.483       .  S
C757        C758   1.525       .  S
C757        C763   1.527       .  S
C757        C761   1.534       .  S
C758        H765   1.087       .  S
C758        C759   1.366       .  D
C759        C760   1.549       .  S
C759        C785   1.482       .  S
C760        C764   1.560       .  S
C760        C762   1.542       .  S
C760        H766   1.110       .  S
C761        H767   1.087   1_455  S
C761        C762   1.362       .  D
C763        H768   1.086       .  S
C763        C764   1.378       .  D
C764        C792   1.523       .  S
O769        C953   1.274   1_554  A
O769       Zn775   2.008       .  S
C770        O786   1.275       .  A
C770        O783   1.271       .  A
O771        C784   1.281       .  A
O771       Cd778   2.113       .  S
O772        C790   1.272       .  A
O772       Cd781   2.053       .  S
O773        C787   1.275       .  A
O773       Cd777   2.073       .  S
O774        C785   1.274       .  A
O774       Cd945   2.091       .  S
Zn775       O786   2.033       .  S
Zn775       O788   1.994       .  S
Zn775       O780   1.910       .  S
O776        C787   1.271       .  A
O776       Cd781   2.050       .  S
Cd777       O942   2.091   1_554  S
Cd777       O779   2.049       .  S
Cd777       O780   1.990       .  S
Cd778       O782   2.117       .  S
Cd778       O791   2.091       .  S
Cd778       O780   2.023       .  S
O779        C789   1.275       .  A
O780       Cd781   1.990       .  S
Cd781       O783   2.069       .  S
O782        C789   1.280       .  A
C784        O788   1.275       .  A
C785        O937   1.274       .  A
C787        C825   1.427       .  S
C790        O791   1.276       .  A
C790        C824   1.434       .  S
C792        C819   1.471       .  S
C792        C821   1.465       .  S
C792        C823   1.469       .  S
O793        C809   1.275       .  A
O793       Zn799   2.031       .  S
C794        O810   1.274       .  A
C794        O807   1.275       .  A
O795        C808   1.281       .  A
O795       Cd802   2.114       .  S
O797        C811   1.271   1_565  A
O797       Cd801   2.050       .  S
O798        C809   1.271       .  A
O798       Cd801   2.070       .  S
Zn799       O810   2.007       .  S
Zn799       O812   1.991       .  S
Zn799       O804   1.909       .  S
O800        C811   1.276       .  A
O800       Cd805   2.077   1_545  S
Cd801       O803   2.053       .  S
Cd801       O804   1.990       .  S
Cd802       O806   2.092       .  S
Cd802       O815   2.116       .  S
Cd802       O804   2.023       .  S
O803        C813   1.272       .  A
O804       Cd805   1.991       .  S
Cd805       O807   2.096       .  S
O806        C813   1.276       .  A
C808        O812   1.275       .  A
C809        C820   1.438       .  S
C813        C817   1.434       .  S
C814        O815   1.280   1_545  A
C816        C818   1.469       .  S
C816        C826   1.464       .  S
C816        C827   1.470       .  S
C817        C986   1.206       .  T
C818        C985   1.206       .  T
C819        C820   1.208       .  T
C821        C822   1.203       .  T
C823        C824   1.206       .  T
C825        C826   1.203       .  T
C827        C828   1.208       .  T
C829        C830   1.207       .  T
C831        C832   1.207       .  T
C833        C834   1.204       .  T
C835       C1004   1.206       .  T
C836       C1003   1.206       .  T
C837        C838   1.203       .  T
C839        C840   1.208       .  T
C841        C842   1.527   1_455  S
C841        C847   1.524   1_455  S
C841        C845   1.532       .  S
C842        H849   1.086       .  S
C842        C843   1.378       .  D
C843        C844   1.560       .  S
C843        C912   1.523       .  S
C844        C848   1.549       .  S
C844        C846   1.542   1_655  S
C844        H850   1.110       .  S
C845        H851   1.087       .  S
C845        C846   1.364       .  D
C846        C957   1.478       .  S
C847        H852   1.087       .  S
C847        C848   1.367       .  D
C853        C854   1.526       .  S
C853        C859   1.528       .  S
C853        C857   1.534       .  S
C853        C976   1.514       .  S
C854        H861   1.087       .  S
C854        C855   1.366       .  D
C855        C856   1.548       .  S
C855        C881   1.483       .  S
C856        C860   1.560       .  S
C856        C858   1.541       .  S
C856        H862   1.110       .  S
C857        H863   1.087       .  S
C857        C858   1.363       .  D
C859        H864   1.086       .  S
C859        C860   1.378       .  D
C860        C888   1.524       .  S
O865        C881   1.274       .  A
O865       Zn871   2.006       .  S
C866        O882   1.275       .  A
C866        O879   1.271       .  A
C866       C1008   1.437       .  S
O867        C880   1.281       .  A
O867       Cd874   2.114       .  S
O868        C886   1.272       .  A
O868       Cd877   2.054       .  S
O869        C883   1.275       .  A
O869       Cd873   2.076       .  S
O870        C881   1.275       .  A
O870       Cd873   2.095       .  S
Zn871       O882   2.030       .  S
Zn871       O884   1.991       .  S
Zn871       O876   1.909       .  S
O872        C883   1.271       .  A
O872       Cd877   2.050       .  S
Cd873       O875   2.053       .  S
Cd873       O876   1.991       .  S
Cd874       O878   2.116       .  S
Cd874       O887   2.092       .  S
Cd874       O876   2.023       .  S
O875        C885   1.275       .  A
O876       Cd877   1.990       .  S
Cd877       O879   2.070       .  S
O878        C885   1.280       .  A
C880        C913   1.514       .  S
C880        O884   1.274       .  A
C886        O887   1.276       .  A
C886       C1003   1.434       .  S
C888       C1000   1.470       .  S
C888       C1002   1.467       .  S
C888       C1004   1.469       .  S
O889        C905   1.277   1_556  A
O889       Zn895   2.068       .  S
C890        O906   1.278       .  A
C890        O903   1.270       .  A
C890       C1001   1.431       .  S
O891        C904   1.280       .  A
O891       Cd898   2.115   1_455  S
O892        C910   1.272       .  A
O892       Cd901   2.053       .  S
O893        C907   1.273       .  A
O893       Cd897   2.067       .  S
O894        C905   1.273   1_556  A
O894       Cd897   2.044       .  S
Zn895       O906   2.041       .  S
Zn895       O908   2.004       .  S
Zn895       O900   1.939       .  S
O896        C907   1.272       .  A
O896       Cd901   2.077       .  S
Cd897       O899   2.042   1_565  S
Cd897       O900   1.962       .  S
Cd898       O902   2.117   1_655  S
Cd898       O911   2.094       .  S
Cd898       O900   2.024       .  S
O899        C909   1.274   1_655  A
O900       Cd901   1.990       .  S
Cd901       O903   2.045       .  S
O902        C909   1.282   1_565  A
C904        C930   1.480       .  S
C904        O908   1.275   1_455  A
C910        O911   1.277       .  A
C910        C997   1.435       .  S
C912        C998   1.470       .  S
C912       C1006   1.465       .  S
C912       C1007   1.470       .  S
C913        C914   1.527       .  S
C913        C919   1.526       .  S
C913        C917   1.533       .  S
C914        H921   1.086       .  S
C914        C915   1.378       .  D
C915        C916   1.559       .  S
C915        C984   1.523       .  S
C916        C920   1.549       .  S
C916        C918   1.541       .  S
C916        H922   1.110       .  S
C917        H923   1.087       .  S
C917        C918   1.363       .  D
C919        H924   1.087       .  S
C919        C920   1.367       .  D
C920        C962   1.483       .  S
C925        C926   1.525       .  S
C925        C931   1.527       .  S
C925        C929   1.534       .  S
C926        H933   1.087       .  S
C926        C927   1.366       .  D
C927        C928   1.549       .  S
C927        C953   1.482       .  S
C928        C932   1.560       .  S
C928        C930   1.542       .  S
C928        H934   1.110       .  S
C929        H935   1.087   1_455  S
C929        C930   1.362       .  D
C931        H936   1.086       .  S
C931        C932   1.379       .  D
C932        C960   1.523       .  S
O937       Zn943   2.008       .  S
C938        O954   1.275       .  A
C938        O951   1.271       .  A
O939        C952   1.281       .  A
O939       Cd946   2.113       .  S
O940        C958   1.272       .  A
O940       Cd949   2.053       .  S
O941        C955   1.275       .  A
O941       Cd945   2.073       .  S
O942        C953   1.274       .  A
Zn943       O954   2.033       .  S
Zn943       O956   1.994       .  S
Zn943       O948   1.910       .  S
O944        C955   1.271       .  A
O944       Cd949   2.050       .  S
Cd945       O947   2.049       .  S
Cd945       O948   1.990       .  S
Cd946       O950   2.117       .  S
Cd946       O959   2.091       .  S
Cd946       O948   2.023       .  S
O947        C957   1.275       .  A
O948       Cd949   1.990       .  S
Cd949       O951   2.069       .  S
O950        C957   1.280       .  A
C952        O956   1.275       .  A
C955        C993   1.427       .  S
C958        O959   1.276       .  A
C958        C992   1.434       .  S
C960        C987   1.471       .  S
C960        C989   1.465       .  S
C960        C991   1.469       .  S
O961        C977   1.275       .  A
O961       Zn967   2.031       .  S
C962        O978   1.274       .  A
C962        O975   1.275       .  A
O963        C976   1.281       .  A
O963       Cd970   2.114       .  S
O965        C979   1.271   1_565  A
O965       Cd969   2.050       .  S
O966        C977   1.271       .  A
O966       Cd969   2.070       .  S
Zn967       O978   2.007       .  S
Zn967       O980   1.991       .  S
Zn967       O972   1.909       .  S
O968        C979   1.276       .  A
O968       Cd973   2.077   1_545  S
Cd969       O971   2.053       .  S
Cd969       O972   1.990       .  S
Cd970       O974   2.092       .  S
Cd970       O983   2.116       .  S
Cd970       O972   2.023       .  S
O971        C981   1.272       .  A
O972       Cd973   1.991       .  S
Cd973       O975   2.096       .  S
O974        C981   1.276       .  A
C976        O980   1.275       .  A
C977        C988   1.438       .  S
C981        C985   1.434   1_556  S
C982        O983   1.280   1_545  A
C984        C986   1.469       .  S
C984        C994   1.464       .  S
C984        C995   1.470       .  S
C987        C988   1.208       .  T
C989        C990   1.203       .  T
C991        C992   1.206       .  T
C993        C994   1.203       .  T
C995        C996   1.208       .  T
C997        C998   1.207       .  T
C999       C1000   1.207       .  T
C1001      C1002   1.204       .  T
C1005      C1006   1.203       .  T
C1007      C1008   1.208       .  T
