geometry optimzed in LAMMPS
_audit_creation_date              2020-11-30 
_audit_creation_method            'lammps2cif' 
_symmetry_space_group_name_H-M    'P1' 
_symmetry_Int_Tables_number       1 
_symmetry_cell_setting            triclinic 
loop_ 
_symmetry_equiv_pos_as_xyz 
  x,y,z 
_cell_length_a                    86.84700723 
_cell_length_b                    87.25769655166121 
_cell_length_c                    86.56273471932529 
_cell_angle_alpha                 90.02921106854943 
_cell_angle_beta                  89.99070454322839 
_cell_angle_gamma                 90.32175148260875 
loop_ 
_atom_site_label 
_atom_site_type_symbol 
_atom_site_fract_x 
_atom_site_fract_y 
_atom_site_fract_z 
_atom_site_charge 
In1        In  0.66222295  0.09028117  0.66561983     1.36900
C2          C  0.63599703  0.09300089  0.64975551     0.77400
O3          O  0.66796257  0.06983276  0.65100187    -0.61100
O4          O  0.66312921  0.06640919  0.67478603    -0.52000
C5          C  0.69049794  0.10064212  0.65950219     0.70000
O6          O  0.67894886  0.10463262  0.65163232    -0.46800
C7          C  0.65713890  0.10356658  0.69278957     0.74800
O8          O  0.64828133  0.09966965  0.64568994    -0.58700
O9          O  0.65896710  0.08937726  0.69106674    -0.48800
O10         O  0.63710788  0.08551065  0.66212998    -0.55100
C11         C  0.66671999  0.06046205  0.66203247     0.84900
O12         O  0.68743068  0.09156921  0.67037966    -0.57000
O13         O  0.65746723  0.11115961  0.68037813    -0.60300
In14       In  0.66269687  0.88736456  0.66290639     1.36900
C15         C  0.63596678  0.88490103  0.64761348     0.77400
O16         O  0.65989469  0.86701426  0.67892696    -0.61100
O17         O  0.65856261  0.88952471  0.68818440    -0.52000
C18         C  0.69067612  0.87672889  0.65594169     0.70000
O19         O  0.67860456  0.87094858  0.65013103    -0.46800
C20         C  0.66697195  0.91737233  0.65983084     0.74800
O21         O  0.64884002  0.88345215  0.64103887    -0.58700
O22         O  0.66500508  0.91094744  0.67270844    -0.48800
O23         O  0.63683085  0.88650329  0.66203492    -0.55100
C24         C  0.65828350  0.87531570  0.69081745     0.84900
O25         O  0.68820492  0.88743702  0.66532698    -0.57000
O26         O  0.66659625  0.90841568  0.64842162    -0.60300
In27       In  0.35564667  0.09157257  0.66004197     1.36900
C28         C  0.38269203  0.09484173  0.64531610     0.77400
O29         O  0.35872720  0.11196174  0.67580538    -0.61100
O30         O  0.35869316  0.08960325  0.68550908    -0.52000
C31         C  0.32692062  0.10113799  0.65406031     0.70000
O32         O  0.33865982  0.10851141  0.64949420    -0.46800
C33         C  0.35346951  0.06149232  0.65678422     0.74800
O34         O  0.36995008  0.09660635  0.63848719    -0.58700
O35         O  0.35456894  0.06798902  0.66975603    -0.48800
O36         O  0.38143681  0.09250481  0.65960388    -0.55100
C37         C  0.35971266  0.10383410  0.68785512     0.84900
O38         O  0.33004309  0.08898860  0.66116529    -0.57000
O39         O  0.35349000  0.07046877  0.64535255    -0.60300
In40       In  0.35674413  0.88784249  0.66193302     1.36900
C41         C  0.38311736  0.88330734  0.64633844     0.77400
O42         O  0.35108212  0.90860853  0.64794422    -0.61100
O43         O  0.35992714  0.91178739  0.67060063    -0.52000
C44         C  0.32804093  0.87903432  0.65533100     0.70000
O45         O  0.33962483  0.87154547  0.65075830    -0.46800
C46         C  0.35852276  0.87561435  0.69001166     0.74800
O47         O  0.37006198  0.88186735  0.64008676    -0.58700
O48         O  0.35846278  0.88984735  0.68754836    -0.48800
O49         O  0.38253909  0.88608686  0.66058557    -0.55100
C50         C  0.35483461  0.91791536  0.65845392     0.84900
O51         O  0.33130146  0.89074148  0.66319673    -0.57000
O52         O  0.35790843  0.86746292  0.67795215    -0.60300
C53         C  0.50940558  0.91779383  0.58137659    -0.02700
C54         C  0.51174408  0.06383778  0.58202958    -0.02700
In55       In  0.11101683  0.64964900  0.65984954     1.36900
C56         C  0.11524895  0.63634568  0.63226356     0.77400
O57         O  0.09138817  0.63291164  0.66165161    -0.61100
O58         O  0.08646818  0.65673431  0.66137540    -0.52000
C59         C  0.12084856  0.64341829  0.68853041     0.70000
O60         O  0.12787136  0.63854238  0.67671138    -0.46800
C61         C  0.12197263  0.67796800  0.65642314     0.74800
O62         O  0.11921676  0.62997092  0.64475782    -0.58700
O63         O  0.10785732  0.67494988  0.65804199    -0.48800
O64         O  0.10993014  0.64963647  0.63397162    -0.55100
C65         C  0.08127242  0.64322866  0.66203468     0.84900
O66         O  0.10905877  0.65113954  0.68548777    -0.57000
O67         O  0.13062611  0.66636509  0.65644347    -0.60300
In68       In  0.90835174  0.64745712  0.66322347     1.36900
C69         C  0.90580927  0.63376405  0.63568778     0.77400
O70         O  0.88828943  0.66356008  0.65954072    -0.61100
O71         O  0.91082409  0.67286565  0.66139156    -0.52000
C72         C  0.89910658  0.64074481  0.69190038     0.70000
O73         O  0.89188060  0.63590496  0.68014546    -0.46800
C74         C  0.93808723  0.64157332  0.66544969     0.74800
O75         O  0.90054075  0.62764745  0.64786368    -0.58700
O76         O  0.93281417  0.65496857  0.66426136    -0.48800
O77         O  0.91111290  0.64707605  0.63762885    -0.55100
C78         C  0.89668769  0.67544869  0.65950398     0.84900
O79         O  0.91072036  0.64884813  0.68878862    -0.57000
O80         O  0.92802056  0.63109258  0.66587011    -0.60300
In81       In  0.11277367  0.65124165  0.35306003     1.36900
C82         C  0.11635103  0.63591318  0.37970449     0.77400
O83         O  0.13233629  0.66780595  0.35793266    -0.61100
O84         O  0.11040720  0.67666209  0.35207781    -0.52000
C85         C  0.12294522  0.64365310  0.32470362     0.70000
O86         O  0.13075131  0.64116302  0.33676667    -0.46800
C87         C  0.08234565  0.64835543  0.35277605     0.74800
O88         O  0.11819313  0.62959202  0.36671224    -0.58700
O89         O  0.08913922  0.66057956  0.35660393    -0.48800
O90         O  0.11379885  0.65005844  0.37891817    -0.55100
C91         C  0.12410749  0.67954205  0.35592896     0.84900
O92         O  0.11018375  0.64992118  0.32728379    -0.57000
O93         O  0.09117504  0.63756797  0.34892728    -0.60300
In94       In  0.90692195  0.64897485  0.35713721     1.36900
C95         C  0.90313437  0.63298038  0.38342478     0.77400
O96         O  0.92859471  0.63602707  0.35206316    -0.61100
O97         O  0.93042987  0.65918948  0.35942423    -0.52000
C98         C  0.89737846  0.64208287  0.32856673     0.70000
O99         O  0.88944921  0.63881211  0.34037973    -0.46800
C100        C  0.89505162  0.67692006  0.35963813     0.74800
O101        O  0.90153257  0.62696740  0.37026372    -0.58700
O102        O  0.90926871  0.67430989  0.35890537    -0.48800
O103        O  0.90560488  0.64718517  0.38302151    -0.55100
C104        C  0.93731317  0.64725987  0.35508946     0.84900
O105        O  0.90998540  0.64859964  0.33153687    -0.57000
O106        O  0.88664552  0.66505653  0.35920482    -0.60300
C107        C  0.93652316  0.56542818  0.50901063    -0.02700
C108        C  0.08413073  0.56992342  0.50665348    -0.02700
In109      In  0.16192306  0.84321741  0.40408672     1.36900
C110        C  0.13416705  0.85608207  0.40140223     0.77400
O111        O  0.15851849  0.82739769  0.38355501    -0.61100
O112        O  0.15837044  0.81807781  0.40618035    -0.52000
C113        C  0.19041057  0.85032489  0.39488302     0.70000
O114        O  0.17888383  0.85808064  0.39063672    -0.46800
C115        C  0.16664374  0.84859195  0.43378144     0.74800
O116        O  0.14555632  0.86064104  0.39347031    -0.58700
O117        O  0.16539480  0.83530487  0.42819404    -0.48800
O118        O  0.13705183  0.84487364  0.41005412    -0.55100
C119        C  0.15740656  0.81554708  0.39189533     0.84900
O120        O  0.18710741  0.83896539  0.40320199    -0.57000
O121        O  0.16547233  0.85930909  0.42407339    -0.60300
In122      In  0.16259829  0.83988903  0.60706633     1.36900
C123        C  0.13572849  0.85418247  0.61034149     0.77400
O124        O  0.16887031  0.85509337  0.58726105    -0.61100
O125        O  0.16099324  0.83252973  0.58236112    -0.52000
C126        C  0.19058429  0.84678539  0.61763350     0.70000
O127        O  0.17862011  0.85326459  0.62273091    -0.46800
C128        C  0.15882294  0.81249623  0.62003636     0.74800
O129        O  0.14815768  0.85979243  0.61550573    -0.58700
O130        O  0.16342953  0.81431923  0.60635033    -0.48800
O131        O  0.13714446  0.84125190  0.60403986    -0.55100
C132        C  0.16580449  0.84516510  0.57712778     0.84900
O133        O  0.18804951  0.83677018  0.60746199    -0.57000
O134        O  0.15613116  0.82479805  0.62721507    -0.60300
In135      In  0.85511187  0.83926994  0.40532527     1.36900
C136        C  0.88237483  0.85392401  0.40319581     0.77400
O137        O  0.84859560  0.85268625  0.42654389    -0.61100
O138        O  0.85735992  0.83020943  0.42930377    -0.52000
C139        C  0.82713698  0.84623644  0.39425626     0.70000
O140        O  0.83934771  0.85184714  0.38854008    -0.46800
C141        C  0.85836140  0.81176480  0.39239595     0.74800
O142        O  0.86979991  0.86037946  0.39988361    -0.58700
O143        O  0.85446469  0.81377671  0.40626227    -0.48800
O144        O  0.88091233  0.84002457  0.40677810    -0.55100
C145        C  0.85233724  0.84212857  0.43573724     0.84900
O146        O  0.82941924  0.83728881  0.40541519    -0.57000
O147        O  0.86049028  0.82400246  0.38485884    -0.60300
In148      In  0.85781250  0.83871147  0.61126367     1.36900
C149        C  0.88446172  0.85398946  0.61512146     0.77400
O150        O  0.85979943  0.82239399  0.63152548    -0.61100
O151        O  0.86415803  0.81409007  0.60891334    -0.52000
C152        C  0.82926311  0.84504448  0.62130486     0.70000
O153        O  0.84110508  0.85095594  0.62745086    -0.46800
C154        C  0.85452017  0.84214595  0.58093618     0.74800
O155        O  0.87155327  0.86010675  0.61767301    -0.58700
O156        O  0.85421273  0.82929964  0.58754594    -0.48800
O157        O  0.88361975  0.84005181  0.61147124    -0.55100
C158        C  0.86327679  0.81106647  0.62311421     0.84900
O159        O  0.83220151  0.83594931  0.61043324    -0.57000
O160        O  0.85637264  0.85338503  0.58991487    -0.60300
C161        C  0.00916169  0.92187263  0.43424814    -0.02700
C162        C  0.01047155  0.92045871  0.58260944    -0.02700
In163      In  0.66201643  0.09310372  0.35471370     1.36900
C164        C  0.63479400  0.09665779  0.36873129     0.77400
O165        O  0.65919643  0.11288780  0.33808663    -0.61100
O166        O  0.66081092  0.09034261  0.32907840    -0.52000
C167        C  0.68925536  0.10484070  0.36278317     0.62800
O168        O  0.67671991  0.11052169  0.36739571    -0.46800
C169        C  0.66531982  0.06312025  0.35907586     0.74800
O170        O  0.64739528  0.09871353  0.37567814    -0.58700
O171        O  0.66197191  0.06896305  0.34621911    -0.48800
O172        O  0.63621861  0.09351745  0.35462647    -0.55100
C173        C  0.65929670  0.10441549  0.32623166     0.84900
O174        O  0.68770019  0.09348302  0.35393498    -0.57000
O175        O  0.66701062  0.07268307  0.36986819    -0.60300
In176      In  0.66161506  0.88995401  0.34950582     1.36900
C177        C  0.63437786  0.88606396  0.36369206     0.77400
O178        O  0.66662449  0.90991871  0.36532400    -0.61100
O179        O  0.66229611  0.91445308  0.34171470    -0.52000
C180        C  0.68980493  0.87917837  0.35581752     0.70000
O181        O  0.67800970  0.87503092  0.36332779    -0.46800
C182        C  0.65688769  0.87789246  0.32159594     0.74800
O183        O  0.64680490  0.88112985  0.36935705    -0.58700
O184        O  0.65882830  0.89201738  0.32399384    -0.48800
O185        O  0.63593802  0.89228439  0.35067458    -0.55100
C186        C  0.66535200  0.91986404  0.35485574     0.84900
O187        O  0.68702119  0.88851126  0.34509653    -0.57000
O188        O  0.65740856  0.86970309  0.33363017    -0.60300
In189      In  0.35621634  0.09298223  0.35576691     1.36900
C190        C  0.38345606  0.09662245  0.36978388     0.77400
O191        O  0.35542866  0.07208117  0.37088201    -0.61100
O192        O  0.35290375  0.06926639  0.34664555    -0.52000
C193        C  0.32862238  0.10393008  0.36387660     0.70000
O194        O  0.34096956  0.11114795  0.36661304    -0.46800
C195        C  0.35941589  0.10404011  0.32731152     0.74800
O196        O  0.37083558  0.09886379  0.37664844    -0.58700
O197        O  0.35849959  0.08994128  0.33031631    -0.48800
O198        O  0.38205461  0.09339628  0.35567489    -0.55100
C199        C  0.35359333  0.06294585  0.35971997     0.84900
O200        O  0.33054555  0.09124744  0.35727855    -0.57000
O201        O  0.35886247  0.11267307  0.33901820    -0.60300
In202      In  0.35814702  0.88926450  0.35324235     1.36900
C203        C  0.38598659  0.88655789  0.36623517     0.77400
O204        O  0.36179885  0.86872416  0.33758929    -0.61100
O205        O  0.35834111  0.89059708  0.32755154    -0.52000
C206        C  0.32979859  0.88031847  0.36160914     0.70000
O207        O  0.33260862  0.89083957  0.35208069    -0.46800
C208        C  0.35598942  0.91922549  0.35773666     0.74800
O209        O  0.37386042  0.88198656  0.37294073    -0.58700
O210        O  0.35772173  0.91331217  0.34456463    -0.48800
O211        O  0.38379473  0.89164276  0.35281898    -0.55100
C212        C  0.36078829  0.87655410  0.32534066     0.84900
O213        O  0.34169710  0.87381962  0.36685805    -0.57000
O214        O  0.35530599  0.90973003  0.36870450    -0.60300
C215        C  0.51155945  0.91709245  0.43512305    -0.02700
C216        C  0.50985055  0.06460534  0.43566954    -0.02700
In217      In  0.40503300  0.14607926  0.16320581     1.36900
C218        C  0.40148839  0.12018711  0.14700872     0.77400
O219        O  0.42605740  0.14851085  0.14833539    -0.61100
O220        O  0.42907708  0.14677836  0.17259065    -0.52000
C221        C  0.39430778  0.17423706  0.15728761     0.70000
O222        O  0.40666661  0.17163771  0.16434297    -0.46800
C223        C  0.39338768  0.14065186  0.19110266     0.74800
O224        O  0.40038810  0.13326352  0.14087979    -0.58700
O225        O  0.40747614  0.14328909  0.18869851    -0.48800
O226        O  0.40343966  0.12048111  0.16141633    -0.55100
C227        C  0.43535044  0.14812512  0.15951541     0.84900
O228        O  0.38716555  0.16228243  0.15311657    -0.57000
O229        O  0.38509664  0.14081929  0.17910247    -0.60300
In230      In  0.60995230  0.14991165  0.16411496     1.36900
C231        C  0.61310570  0.12336852  0.14893982     0.77400
O232        O  0.63067901  0.14603450  0.17944210    -0.61100
O233        O  0.60833463  0.14477690  0.18930099    -0.52000
C234        C  0.61990125  0.17851740  0.15844131     0.70000
O235        O  0.62510209  0.16703046  0.15125633    -0.46800
C236        C  0.57987291  0.15272712  0.15932466     0.74800
O237        O  0.61764886  0.13598081  0.14330032    -0.58700
O238        O  0.58579694  0.15264146  0.17261392    -0.48800
O239        O  0.60800163  0.12438343  0.16251746    -0.55100
C240        C  0.62265589  0.14387973  0.19144746     0.84900
O241        O  0.60990356  0.17522982  0.16844564    -0.57000
O242        O  0.58941304  0.15173794  0.14840416    -0.60300
In243      In  0.60591726  0.84279361  0.15748412     1.36900
C244        C  0.61044147  0.87030666  0.14443759     0.77400
O245        O  0.58566988  0.84126908  0.14138487    -0.61100
O246        O  0.58156288  0.84148829  0.16554477    -0.52000
C247        C  0.61471144  0.81432145  0.14956801     0.70000
O248        O  0.62041941  0.82614726  0.14330829    -0.46800
C249        C  0.61788640  0.84616114  0.18563124     0.74800
O250        O  0.60338421  0.86831693  0.15699822    -0.58700
O251        O  0.60384944  0.84350924  0.18312803    -0.48800
O252        O  0.61584026  0.85814387  0.13866622    -0.55100
C253        C  0.57590275  0.84088005  0.15216439     0.84900
O254        O  0.60494774  0.81720950  0.15987048    -0.57000
O255        O  0.62604317  0.84718686  0.17357508    -0.60300
In256      In  0.40247365  0.84463655  0.15856432     1.36900
C257        C  0.39712238  0.87135254  0.14445267     0.77400
O258        O  0.38343857  0.84865415  0.17592402    -0.61100
O259        O  0.40546823  0.84212500  0.18407241    -0.52000
C260        C  0.39384125  0.81600646  0.15154073     0.70000
O261        O  0.38594992  0.82748576  0.14750785    -0.46800
C262        C  0.43233079  0.84536210  0.15234064     0.74800
O263        O  0.39327392  0.85865851  0.13848541    -0.58700
O264        O  0.42686917  0.84883925  0.16537361    -0.48800
O265        O  0.40250311  0.87026547  0.15791625    -0.55100
C266        C  0.39179690  0.84552532  0.18743881     0.84900
O267        O  0.40594304  0.81936449  0.15880233    -0.57000
O268        O  0.42243139  0.84144642  0.14240511    -0.60300
C269        C  0.43577534  0.99543542  0.07959645    -0.02700
C270        C  0.58253754  0.99744317  0.08061238    -0.02700
In271      In  0.40460223  0.14657580  0.85217285     1.36900
C272        C  0.40087933  0.11986100  0.86710762     0.77400
O273        O  0.38491313  0.14244307  0.83550518    -0.61100
O274        O  0.40749756  0.14566885  0.82663119    -0.52000
C275        C  0.39442864  0.17461086  0.85980976     0.70000
O276        O  0.38731218  0.16255519  0.86373169    -0.46800
C277        C  0.43497528  0.14716921  0.85541745     0.74800
O278        O  0.40058060  0.13262193  0.87397008    -0.58700
O279        O  0.42847073  0.14635262  0.84243252    -0.48800
O280        O  0.40188964  0.12092569  0.85263849    -0.55100
C281        C  0.39349925  0.14313630  0.82370299     0.84900
O282        O  0.40648655  0.17217058  0.85218643    -0.57000
O283        O  0.42588961  0.14800814  0.86673582    -0.60300
In284      In  0.61039819  0.14367224  0.85632284     1.36900
C285        C  0.61409464  0.11688448  0.87096592     0.77400
O286        O  0.58856871  0.14424580  0.87017867    -0.61100
O287        O  0.58688773  0.14333406  0.84572992    -0.52000
C288        C  0.62090386  0.17120313  0.86577718     0.70000
O289        O  0.62905192  0.15928639  0.86629901    -0.46800
C290        C  0.62192604  0.14138192  0.82785924     0.74800
O291        O  0.61592303  0.12961190  0.87768181    -0.58700
O292        O  0.60834274  0.14556039  0.83063236    -0.48800
O293        O  0.61128182  0.11799130  0.85674890    -0.55100
C294        C  0.57989626  0.14371824  0.85849354     0.84900
O295        O  0.60757888  0.16891674  0.86056091    -0.57000
O296        O  0.62985317  0.13864965  0.83976714    -0.60300
In297      In  0.40337535  0.84059370  0.85411566     1.36900
C298        C  0.39957254  0.86816567  0.86741838     0.77400
O299        O  0.42431698  0.83655050  0.86905589    -0.61100
O300        O  0.42744078  0.84048258  0.84511618    -0.52000
C301        C  0.39342825  0.81239838  0.86149595     0.70000
O302        O  0.38846134  0.82422309  0.86828343    -0.46800
C303        C  0.39081610  0.84311973  0.82617598     0.74800
O304        O  0.39500457  0.85593248  0.87380004    -0.58700
O305        O  0.40505629  0.84189739  0.82852240    -0.48800
O306        O  0.40531402  0.86617722  0.85423302    -0.55100
C307        C  0.43365812  0.83778807  0.85795128     0.84900
O308        O  0.40319956  0.81517644  0.85112737    -0.57000
O309        O  0.38273296  0.84332307  0.83832721    -0.60300
In310      In  0.60887577  0.83658488  0.85371045     1.36900
C311        C  0.61178008  0.86399620  0.86739195     0.77400
O312        O  0.63011512  0.83922844  0.83866760    -0.61100
O313        O  0.60805238  0.83922282  0.82816665    -0.52000
C314        C  0.61856163  0.80871627  0.86206398     0.70000
O315        O  0.62384483  0.82081802  0.86815824    -0.46800
C316        C  0.57853348  0.83401024  0.85702070     0.74800
O317        O  0.61566679  0.85171703  0.87402559    -0.58700
O318        O  0.58504252  0.83466512  0.84403129    -0.48800
O319        O  0.60738943  0.86219847  0.85365601    -0.55100
C320        C  0.62241284  0.84009566  0.82630504     0.84900
O321        O  0.60860878  0.81102550  0.85176895    -0.57000
O322        O  0.58762695  0.83425795  0.86836962    -0.60300
C323        C  0.43365353  0.99352264  0.93182972    -0.02700
C324        C  0.58154569  0.99019202  0.93479746    -0.02700
In325      In  0.35928796  0.64892812  0.10770650     1.36900
C326        C  0.37304109  0.62188359  0.11219733     0.77400
O327        O  0.34223771  0.64620447  0.12719019    -0.61100
O328        O  0.33378496  0.65054120  0.10459136    -0.52000
C329        C  0.36697726  0.67706857  0.11734704     0.70000
O330        O  0.36949465  0.66533973  0.12553677    -0.46800
C331        C  0.36312340  0.64856295  0.07736286     0.74800
O332        O  0.38052154  0.63432819  0.11178635    -0.58700
O333        O  0.35040467  0.64553186  0.08375728    -0.48800
O334        O  0.35867038  0.62353989  0.11173275    -0.55100
C335        C  0.33061484  0.64813862  0.11861710     0.84900
O336        O  0.36113836  0.67416004  0.10438245    -0.57000
O337        O  0.37392406  0.65178776  0.08656955    -0.60300
In338      In  0.35799781  0.64422514  0.90201997     1.36900
C339        C  0.37373924  0.61828360  0.89686613     0.77400
O340        O  0.37220923  0.64962637  0.92294661    -0.61100
O341        O  0.35013194  0.63963659  0.92622468    -0.52000
C342        C  0.36429135  0.67313054  0.89379300     0.70000
O343        O  0.36887008  0.66183548  0.88585725    -0.46800
C344        C  0.32945861  0.64170795  0.89092735     0.74800
O345        O  0.38005429  0.63133407  0.89643825    -0.58700
O346        O  0.33259894  0.64209320  0.90513991    -0.48800
O347        O  0.35936221  0.61872164  0.89848118    -0.55100
C348        C  0.36220236  0.64491260  0.93238168     0.84900
O349        O  0.35647463  0.66946544  0.90547738    -0.57000
O350        O  0.34106671  0.64271001  0.88213729    -0.60300
In351      In  0.35173964  0.33945383  0.11481129     1.36900
C352        C  0.36761292  0.36570208  0.11825238     0.77400
O353        O  0.36668237  0.33649683  0.09386932    -0.61100
O354        O  0.34249155  0.33731965  0.09073007    -0.52000
C355        C  0.35761065  0.31122661  0.12536668     0.70000
O356        O  0.36330598  0.32306996  0.13160270    -0.46800
C357        C  0.32430045  0.34472687  0.12736382     0.74800
O358        O  0.37354677  0.35274535  0.12069195    -0.58700
O359        O  0.32649987  0.34385219  0.11299388    -0.48800
O360        O  0.35353559  0.36514043  0.11480029    -0.55100
C361        C  0.35555709  0.33606686  0.08452576     0.84900
O362        O  0.34892847  0.31398647  0.11409239    -0.57000
O363        O  0.33630360  0.34312205  0.13544563    -0.60300
In364      In  0.35183107  0.33818371  0.90989940     1.36900
C365        C  0.36569204  0.36572323  0.90961570     0.77400
O366        O  0.33737007  0.34481738  0.88924885    -0.61100
O367        O  0.32623119  0.33970287  0.91046770    -0.52000
C368        C  0.35873894  0.31066457  0.89795524     0.70000
O369        O  0.36593392  0.32271733  0.89409962    -0.46800
C370        C  0.35609014  0.33313431  0.93982198     0.74800
O371        O  0.37155409  0.35409545  0.90319436    -0.58700
O372        O  0.34295413  0.33473929  0.93386648    -0.48800
O373        O  0.35258622  0.36329881  0.91539054    -0.55100
C374        C  0.32480219  0.34358935  0.89652764     0.84900
O375        O  0.34813878  0.31288903  0.90758684    -0.57000
O376        O  0.36710993  0.33375338  0.93034881    -0.60300
C377        C  0.43503457  0.49267571  0.93724326    -0.02700
C378        C  0.43166330  0.49115528  0.08407102    -0.02700
In379      In  0.66103124  0.64877996  0.10884590     1.36900
C380        C  0.64727396  0.62131814  0.11252516     0.77400
O381        O  0.64635683  0.65131860  0.08768270    -0.61100
O382        O  0.67049673  0.64939135  0.08475993    -0.52000
C383        C  0.65332439  0.67712113  0.11804233     0.70000
O384        O  0.64659141  0.66523969  0.12306633    -0.46800
C385        C  0.68797810  0.64560691  0.12288952     0.74800
O386        O  0.64073049  0.63376473  0.11595828    -0.58700
O387        O  0.68651135  0.64641565  0.10842695    -0.48800
O388        O  0.66099649  0.62296175  0.10811507    -0.55100
C389        C  0.65751548  0.65064445  0.07840314     0.84900
O390        O  0.66402752  0.67438059  0.10864018    -0.57000
O391        O  0.67548461  0.64639154  0.13034226    -0.60300
In392      In  0.66136468  0.64291831  0.90326109     1.36900
C393        C  0.64754112  0.61561723  0.89979257     0.77400
O394        O  0.67673670  0.64013714  0.88233745    -0.61100
O395        O  0.68693330  0.64144481  0.90457275    -0.52000
C396        C  0.65411281  0.67153948  0.89505740     0.70000
O397        O  0.64905864  0.66000080  0.88773057    -0.46800
C398        C  0.65686468  0.64460052  0.93347433     0.74800
O399        O  0.64116173  0.62797621  0.89573135    -0.58700
O400        O  0.66998567  0.64294903  0.92746621    -0.48800
O401        O  0.66112973  0.61730058  0.90457474    -0.55100
C402        C  0.68897792  0.63998472  0.89023847     0.84900
O403        O  0.66282339  0.66827446  0.90616870    -0.57000
O404        O  0.64590628  0.64537549  0.92393523    -0.60300
In405      In  0.65793245  0.34537981  0.11601483     1.36900
C406        C  0.64116228  0.37094038  0.11929326     0.77400
O407        O  0.67387631  0.35026067  0.13613577    -0.61100
O408        O  0.68349017  0.34751251  0.11379171    -0.52000
C409        C  0.65286986  0.31699934  0.12661051     0.70000
O410        O  0.64746944  0.32869034  0.13331026    -0.46800
C411        C  0.65367850  0.34203803  0.08583990     0.74800
O412        O  0.63578003  0.35779362  0.12224780    -0.58700
O413        O  0.66589480  0.34751741  0.09152427    -0.48800
O414        O  0.65517515  0.37093521  0.11558474    -0.55100
C415        C  0.68592195  0.34991140  0.12794260     0.84900
O416        O  0.66080176  0.32000048  0.11481522    -0.57000
O417        O  0.64353862  0.33846563  0.09564172    -0.60300
In418      In  0.66165853  0.33673948  0.91169713     1.36900
C419        C  0.64680438  0.36326483  0.90705123     0.77400
O420        O  0.64581367  0.33380953  0.93192089    -0.61100
O421        O  0.66957473  0.33799973  0.93619316    -0.52000
C422        C  0.65582450  0.30788871  0.90269150     0.70000
O423        O  0.65247247  0.31929135  0.89433536    -0.46800
C424        C  0.69009083  0.33970530  0.90066687     0.74800
O425        O  0.64041330  0.35039443  0.90486134    -0.58700
O426        O  0.68707620  0.33862051  0.91487582    -0.48800
O427        O  0.66087966  0.36241395  0.91037891    -0.55100
C428        C  0.65636122  0.33558808  0.94179930     0.84900
O429        O  0.66188399  0.31138874  0.91541068    -0.57000
O430        O  0.67841874  0.33947089  0.89194317    -0.60300
C431        C  0.58144682  0.49049148  0.93683639    -0.02700
C432        C  0.57780548  0.49498064  0.08390039    -0.02700
In433      In  0.16220638  0.39577745  0.16187586     1.36900
C434        C  0.14700389  0.39220822  0.13509066     0.77400
O435        O  0.14971474  0.41744106  0.16768672    -0.61100
O436        O  0.17143156  0.41911058  0.15653143    -0.52000
C437        C  0.15448611  0.38558206  0.19007565     0.70000
O438        O  0.15043620  0.37857664  0.17791101    -0.46800
C439        C  0.19020250  0.38357392  0.16072965     0.74800
O440        O  0.14033691  0.39120580  0.14803223    -0.58700
O441        O  0.18778074  0.39731410  0.16445530    -0.48800
O442        O  0.16136896  0.39391640  0.13603535    -0.55100
C443        C  0.16004590  0.42605204  0.16216181     0.84900
O444        O  0.16206029  0.39767495  0.18761159    -0.57000
O445        O  0.17819501  0.37597950  0.15748877    -0.60300
In446      In  0.16609104  0.60047267  0.15729592     1.36900
C447        C  0.15028231  0.60400761  0.13068672     0.77400
O448        O  0.18239999  0.62088576  0.15614774    -0.61100
O449        O  0.19111283  0.59865195  0.15169088    -0.52000
C450        C  0.15959152  0.60972915  0.18618280     0.70000
O451        O  0.15392012  0.61618032  0.17440535    -0.46800
C452        C  0.16295693  0.57027104  0.15990656     0.74800
O453        O  0.14409874  0.60553417  0.14378951    -0.58700
O454        O  0.17576095  0.57678955  0.15781720    -0.48800
O455        O  0.16458658  0.60193283  0.13129743    -0.55100
C456        C  0.19397866  0.61278543  0.15279102     0.84900
O457        O  0.16863861  0.59894310  0.18303884    -0.57000
O458        O  0.15168541  0.57925842  0.16075877    -0.60300
In459      In  0.16344767  0.59842368  0.85472058     1.36900
C460        C  0.15004138  0.60063608  0.88248843     0.77400
O461        O  0.14833364  0.57749959  0.85224611    -0.61100
O462        O  0.17256940  0.57472114  0.85270072    -0.52000
C463        C  0.15480548  0.60899108  0.82693585     0.70000
O464        O  0.14975809  0.61473571  0.83933661    -0.46800
C465        C  0.19166349  0.61031013  0.85783153     0.74800
O466        O  0.14364402  0.60536491  0.87028950    -0.58700
O467        O  0.18898494  0.59655294  0.85436535    -0.48800
O468        O  0.16348222  0.59567494  0.88048355    -0.55100
C469        C  0.15954780  0.56838479  0.85178560     0.84900
O470        O  0.16409204  0.59818728  0.82895360    -0.57000
O471        O  0.17971659  0.61831810  0.85974633    -0.60300
In472      In  0.16312608  0.39430071  0.85388477     1.36900
C473        C  0.14897403  0.39032077  0.88128119     0.77400
O474        O  0.17928155  0.37433738  0.85722521    -0.61100
O475        O  0.18853790  0.39688282  0.85606125    -0.52000
C476        C  0.15623380  0.38432116  0.82528230     0.70000
O477        O  0.15064741  0.37814077  0.83726434    -0.46800
C478        C  0.15945246  0.42440466  0.85204319     0.74800
O479        O  0.14221862  0.38791895  0.86857141    -0.58700
O480        O  0.17236940  0.41814673  0.85367148    -0.48800
O481        O  0.16297062  0.39382748  0.87985204    -0.55100
C482        C  0.19116501  0.38278999  0.85762334     0.84900
O483        O  0.16520405  0.39534326  0.82806981    -0.57000
O484        O  0.14825349  0.41517936  0.85115072    -0.60300
C485        C  0.08036899  0.42072274  0.00719585    -0.02700
C486        C  0.07902948  0.56805913  0.00679365    -0.02700
In487      In  0.84975148  0.39543849  0.16830646     1.36900
C488        C  0.86695199  0.39297428  0.14261354     0.77400
O489        O  0.83403909  0.37506294  0.16365915    -0.61100
O490        O  0.82415529  0.39658927  0.16908051    -0.52000
C491        C  0.85773027  0.38527619  0.19636083     0.70000
O492        O  0.86193219  0.37857506  0.18413065    -0.46800
C493        C  0.85021600  0.42587534  0.16862225     0.74800
O494        O  0.87271071  0.39423756  0.15591603    -0.58700
O495        O  0.83898770  0.41822621  0.16347174    -0.48800
O496        O  0.85249465  0.39176041  0.14260850    -0.55100
C497        C  0.82186886  0.38271494  0.16570026     0.84900
O498        O  0.84949655  0.39686934  0.19408193    -0.57000
O499        O  0.86110134  0.41790757  0.17382839    -0.60300
In500      In  0.85038257  0.60074173  0.16295599     1.36900
C501        C  0.86689210  0.60423698  0.13707950     0.77400
O502        O  0.86249066  0.57881235  0.16876338    -0.61100
O503        O  0.84082641  0.57757901  0.15749983    -0.52000
C504        C  0.85815259  0.61156453  0.19079115     0.70000
O505        O  0.86149370  0.61873523  0.17853649    -0.46800
C506        C  0.82200619  0.61191357  0.16101697     0.74800
O507        O  0.87289953  0.60519831  0.15032656    -0.58700
O508        O  0.82499305  0.59885036  0.16635699    -0.48800
O509        O  0.85248451  0.60259619  0.13724807    -0.55100
C510        C  0.85199790  0.57040675  0.16322540     0.84900
O511        O  0.85102049  0.59917425  0.18859340    -0.57000
O512        O  0.83368181  0.61950550  0.15671447    -0.60300
In513      In  0.85248222  0.38989395  0.86255294     1.36900
C514        C  0.86868546  0.38890526  0.88897216     0.77400
O515        O  0.86465374  0.41191717  0.85673431    -0.61100
O516        O  0.84129832  0.41277043  0.86396701    -0.52000
C517        C  0.85891537  0.37900046  0.83432518     0.70000
O518        O  0.86384915  0.37259996  0.84644912    -0.46800
C519        C  0.82542187  0.37613836  0.86660050     0.74800
O520        O  0.87479310  0.38644601  0.87595628    -0.58700
O521        O  0.82692605  0.38995474  0.86268200    -0.48800
O522        O  0.85436593  0.39096702  0.88838336    -0.55100
C523        C  0.85303834  0.42010213  0.85954601     0.84900
O524        O  0.85112473  0.39084243  0.83681955    -0.57000
O525        O  0.83796350  0.36913893  0.86863862    -0.60300
In526      In  0.85295103  0.59513225  0.85682281     1.36900
C527        C  0.86699491  0.59990176  0.88407922     0.77400
O528        O  0.83631536  0.61468774  0.86049474    -0.61100
O529        O  0.82775015  0.59363403  0.85174594    -0.52000
C530        C  0.86405675  0.60469864  0.82951802     0.70000
O531        O  0.86360703  0.61329129  0.84122999    -0.46800
C532        C  0.85318649  0.56467347  0.85721886     0.74800
O533        O  0.87397083  0.60078596  0.87132568    -0.58700
O534        O  0.84101169  0.57237434  0.85845190    -0.48800
O535        O  0.85277966  0.59726432  0.88279705    -0.55100
C536        C  0.82473445  0.60708517  0.85599510     0.84900
O537        O  0.85925298  0.59130982  0.83198161    -0.57000
O538        O  0.86533555  0.57260684  0.85611485    -0.60300
C539        C  0.93468107  0.42442195  0.01559541    -0.02700
C540        C  0.93286917  0.56982897  0.01097846    -0.02700
In541      In  0.16379537  0.14928315  0.40781941     1.36900
C542        C  0.13715872  0.13361276  0.40550487     0.77400
O543        O  0.16873693  0.13476385  0.42871617    -0.61100
O544        O  0.16357538  0.15826914  0.43200256    -0.52000
C545        C  0.19228910  0.14337254  0.39747215     0.70000
O546        O  0.18045887  0.13706662  0.39172326    -0.46800
C547        C  0.15886961  0.17661402  0.39496877     0.74800
O548        O  0.14969382  0.12835184  0.40036602    -0.58700
O549        O  0.16182305  0.17469540  0.40906742    -0.48800
O550        O  0.13828467  0.14698202  0.41086554    -0.55100
C551        C  0.16679482  0.14560445  0.43816414     0.84900
O552        O  0.18940237  0.15260464  0.40824595    -0.57000
O553        O  0.15834463  0.16436460  0.38718195    -0.60300
In554      In  0.16111213  0.14759985  0.61384566     1.36900
C555        C  0.13401129  0.13290726  0.61768885     0.77400
O556        O  0.15939584  0.16429175  0.63382408    -0.61100
O557        O  0.15772387  0.17274567  0.61090880    -0.52000
C558        C  0.18920377  0.14012125  0.62431233     0.70000
O559        O  0.17701392  0.13601118  0.63118644    -0.46800
C560        C  0.16382210  0.14409356  0.58341572     0.74800
O561        O  0.14678626  0.12620131  0.61890196    -0.58700
O562        O  0.16177492  0.15690528  0.58978261    -0.48800
O563        O  0.13522377  0.14711574  0.61556512    -0.55100
C564        C  0.15761784  0.17580072  0.62513525     0.84900
O565        O  0.18688516  0.14820304  0.61251130    -0.57000
O566        O  0.16449320  0.13296571  0.59267428    -0.60300
In567      In  0.85602512  0.14801719  0.61933745     1.36900
C568        C  0.88289073  0.13335205  0.62241820     0.77400
O569        O  0.85072373  0.13426383  0.59796815    -0.61100
O570        O  0.85822598  0.15724194  0.59535358    -0.52000
C571        C  0.82795267  0.14016985  0.62935641     0.70000
O572        O  0.83999257  0.13420641  0.63488049    -0.46800
C573        C  0.85917164  0.17574441  0.63184537     0.74800
O574        O  0.87007702  0.12678903  0.62454644    -0.58700
O575        O  0.85591690  0.17340255  0.61786057    -0.48800
O576        O  0.88188491  0.14749036  0.61978013    -0.55100
C577        C  0.85397624  0.14503834  0.58883484     0.84900
O578        O  0.83047813  0.15025214  0.61927794    -0.57000
O579        O  0.86064688  0.16367876  0.63982114    -0.60300
In580      In  0.85343460  0.14707210  0.41298580     1.36900
C581        C  0.88043504  0.13271906  0.40889317     0.77400
O582        O  0.85534411  0.16293643  0.39252858    -0.61100
O583        O  0.85653572  0.17231970  0.41515877    -0.52000
C584        C  0.82476847  0.14059546  0.40341631     0.70000
O585        O  0.83650945  0.13686587  0.39566279    -0.46800
C586        C  0.85212828  0.14424765  0.44342170     0.74800
O587        O  0.86768751  0.12567917  0.40824358    -0.58700
O588        O  0.85280902  0.15704129  0.43667643    -0.48800
O589        O  0.87914665  0.14698283  0.41050845    -0.55100
C590        C  0.85672544  0.17480356  0.40080951     0.84900
O591        O  0.82784228  0.14706673  0.41602707    -0.57000
O592        O  0.85200974  0.13278846  0.43450929    -0.60300
C593        C  0.00931405  0.06854173  0.43647601    -0.02700
C594        C  0.00701218  0.06771945  0.58430618    -0.02700
In595      In  0.11030263  0.33941506  0.65958193     1.36900
C596        C  0.11400956  0.35293831  0.63194788     0.77400
O597        O  0.13029838  0.32297271  0.65912238    -0.61100
O598        O  0.10765540  0.31434388  0.65562162    -0.52000
C599        C  0.12101994  0.34701995  0.68757177     0.70000
O600        O  0.12763322  0.35141865  0.67530888    -0.46800
C601        C  0.08020378  0.34345094  0.66325974     0.74800
O602        O  0.11637394  0.35991226  0.64451961    -0.58700
O603        O  0.08630822  0.33041495  0.66234302    -0.48800
O604        O  0.11071221  0.33898005  0.63359342    -0.55100
C605        C  0.12179516  0.31139409  0.65678960     0.84900
O606        O  0.10919401  0.33893033  0.68531533    -0.57000
O607        O  0.08956211  0.35451615  0.66227631    -0.60300
In608      In  0.90503888  0.34117272  0.66739732     1.36900
C609        C  0.90051995  0.35681282  0.64095263     0.77400
O610        O  0.92633718  0.35517477  0.67261778    -0.61100
O611        O  0.92906291  0.33266188  0.66395430    -0.52000
C612        C  0.89457685  0.34679462  0.69604697     0.70000
O613        O  0.88837162  0.35255579  0.68419156    -0.46800
C614        C  0.89393738  0.31282085  0.66385641     0.74800
O615        O  0.90075904  0.36326392  0.65400630    -0.58700
O616        O  0.90796837  0.31586813  0.66610084    -0.48800
O617        O  0.90144989  0.34244554  0.64163867    -0.55100
C618        C  0.93552155  0.34477918  0.66857761     0.84900
O619        O  0.90593106  0.33839905  0.69311160    -0.57000
O620        O  0.88530226  0.32445755  0.66341110    -0.60300
In621      In  0.11080150  0.33885019  0.35584102     1.36900
C622        C  0.11363991  0.35426330  0.38249121     0.77400
O623        O  0.08960086  0.35255837  0.35122058    -0.61100
O624        O  0.08695696  0.32957866  0.35892393    -0.52000
C625        C  0.12133128  0.34645142  0.32770054     0.70000
O626        O  0.12866755  0.34979471  0.33988250    -0.46800
C627        C  0.12300159  0.31102185  0.35842368     0.74800
O628        O  0.11694258  0.36024497  0.36959872    -0.58700
O629        O  0.10978923  0.31340989  0.35296106    -0.48800
O630        O  0.10985541  0.34033609  0.38166800    -0.55100
C631        C  0.08049312  0.34184810  0.35488156     0.84900
O632        O  0.10882000  0.33952044  0.33010738    -0.57000
O633        O  0.13015005  0.32299236  0.36253874    -0.60300
In634      In  0.90619911  0.33646578  0.35975013     1.36900
C635        C  0.90478458  0.35071236  0.38705509     0.77400
O636        O  0.88571455  0.32090678  0.36409050    -0.61100
O637        O  0.90789223  0.31108247  0.36186307    -0.52000
C638        C  0.89536351  0.34489116  0.33209140     0.70000
O639        O  0.88913490  0.34921897  0.34453718    -0.46800
C640        C  0.93619694  0.34036196  0.35595723     0.74800
O641        O  0.90085744  0.35710873  0.37458339    -0.58700
O642        O  0.92980570  0.32736243  0.35546278    -0.48800
O643        O  0.90844116  0.33683112  0.38559493    -0.55100
C644        C  0.89371028  0.30884262  0.36398674     0.84900
O645        O  0.90674753  0.33626243  0.33397732    -0.57000
O646        O  0.92716870  0.35138540  0.35825682    -0.60300
C647        C  0.08258521  0.42300369  0.50805474    -0.02700
C648        C  0.93457473  0.42029279  0.51283648    -0.02700
C649        C  0.95246805  0.42025156  0.51204462    -0.03600
C650        C  0.96102504  0.42642965  0.52451554    -0.09300
C651        C  0.97711614  0.42671592  0.52427471    -0.17000
C652        C  0.98506892  0.42136512  0.51134034     0.25200
C653        C  0.97686260  0.41611986  0.49849661    -0.18600
C654        C  0.96077665  0.41576198  0.49871739    -0.07600
C655        C  0.00164555  0.42147840  0.51110177    -0.14000
C656        C  0.01552728  0.42152605  0.51073398    -0.13700
C657        C  0.03209633  0.42171059  0.51019161     0.25100
C658        C  0.03972572  0.42902090  0.49803181    -0.19100
C659        C  0.05580000  0.42935111  0.49757325    -0.07600
C660        C  0.06470989  0.42207495  0.50910661    -0.03700
C661        C  0.05670374  0.41527129  0.52163525    -0.09000
C662        C  0.04061121  0.41491343  0.52200792    -0.16600
H663        H  0.95516463  0.43079238  0.53463336     0.11500
H664        H  0.98334388  0.43113521  0.53417953     0.10800
H665        H  0.98290722  0.41241067  0.48821239     0.10700
H666        H  0.95503869  0.41231720  0.48820384     0.11300
H667        H  0.03325242  0.43452789  0.48891054     0.11300
H668        H  0.06139492  0.43515516  0.48802698     0.11300
H669        H  0.06262439  0.41048413  0.53144738     0.11400
H670        H  0.03480043  0.40950483  0.53166831     0.10300
C671        C  0.90578301  0.35887437  0.40204462    -0.03600
C672        C  0.90549917  0.37497954  0.40266151    -0.09300
C673        C  0.90759123  0.38266521  0.41674932    -0.17000
C674        C  0.90988378  0.37435569  0.43041251     0.25200
C675        C  0.91007561  0.35831657  0.42986845    -0.18600
C676        C  0.90809826  0.35063118  0.41580019    -0.07600
C677        C  0.91223753  0.38218637  0.44497140    -0.14000
C678        C  0.91451518  0.38838136  0.45728362    -0.13700
C679        C  0.91786340  0.39567259  0.47193410     0.25100
C680        C  0.92734588  0.38842546  0.48272678    -0.19100
C681        C  0.93166393  0.39600705  0.49633213    -0.07600
C682        C  0.92725246  0.41134341  0.49909365    -0.03700
C683        C  0.91634050  0.41781279  0.48887443    -0.09000
C684        C  0.91194787  0.41016475  0.47532565    -0.16600
H685        H  0.90397905  0.38162740  0.39221653     0.11500
H686        H  0.90752154  0.39507818  0.41696499     0.10800
H687        H  0.91188504  0.35173598  0.44031600     0.10700
H688        H  0.90849122  0.33822849  0.41566525     0.11300
H689        H  0.93174210  0.37705058  0.48045339     0.11300
H690        H  0.93940381  0.39028736  0.50423085     0.11300
H691        H  0.91132013  0.42890447  0.49104905     0.11400
H692        H  0.90414535  0.41570517  0.46734885     0.10300
C693        C  0.95289285  0.34247225  0.35414994    -0.03600
C694        C  0.95981384  0.35666932  0.35756642    -0.09300
C695        C  0.97576690  0.35844748  0.35648738    -0.17000
C696        C  0.98487384  0.34609169  0.35187995     0.25200
C697        C  0.97802698  0.33201385  0.34818653    -0.18600
C698        C  0.96210531  0.33018765  0.34934668    -0.07600
C699        C  0.00130807  0.34751238  0.35167433    -0.14000
C700        C  0.01513691  0.34758956  0.35206169    -0.13700
C701        C  0.03155136  0.34637636  0.35299405     0.25100
C702        C  0.03809681  0.33284217  0.35853593    -0.19100
C703        C  0.05406933  0.33139288  0.35924302    -0.07600
C704        C  0.06364609  0.34349982  0.35441150    -0.03700
C705        C  0.05698367  0.35713063  0.34901462    -0.09000
C706        C  0.04098607  0.35854659  0.34829108    -0.16600
H707        H  0.95293515  0.36628332  0.36134852     0.11500
H708        H  0.98100593  0.36935638  0.35945309     0.10800
H709        H  0.98502226  0.32238214  0.34465354     0.10700
H710        H  0.95701839  0.31915540  0.34660800     0.11300
H711        H  0.03085040  0.32337985  0.36223117     0.11300
H712        H  0.05892019  0.32079711  0.36350242     0.11300
H713        H  0.06413008  0.36663118  0.34525343     0.11400
H714        H  0.03599086  0.36907035  0.34400642     0.10300
C715        C  0.11350900  0.36280161  0.39734485    -0.03600
C716        C  0.10899385  0.35529856  0.41102061    -0.09300
C717        C  0.10775179  0.36337750  0.42493268    -0.17000
C718        C  0.11101340  0.37910014  0.42547017     0.25200
C719        C  0.11567798  0.38666155  0.41193845    -0.18600
C720        C  0.11692247  0.37857219  0.39796062    -0.07600
C721        C  0.10880634  0.38745752  0.43976109    -0.14000
C722        C  0.10572965  0.39387902  0.45177414    -0.13700
C723        C  0.10023297  0.40096322  0.46585763     0.25100
C724        C  0.11021657  0.40872908  0.47592023    -0.19100
C725        C  0.10449344  0.41566384  0.48938594    -0.07600
C726        C  0.08857960  0.41534502  0.49292826    -0.03700
C727        C  0.07889841  0.40672057  0.48295856    -0.09000
C728        C  0.08462703  0.39986060  0.46957216    -0.16600
H729        H  0.10614870  0.34319910  0.41092236     0.11500
H730        H  0.10401129  0.35738317  0.43524314     0.10800
H731        H  0.11812682  0.39884617  0.41213578     0.10700
H732        H  0.12028871  0.38468876  0.38760477     0.11300
H733        H  0.12241088  0.40943837  0.47337563     0.11300
H734        H  0.11247187  0.42152608  0.49700752     0.11300
H735        H  0.06686864  0.40481275  0.48545684     0.11400
H736        H  0.07681786  0.39353733  0.46213293     0.10300
C737        C  0.90025095  0.36521544  0.62599572    -0.03600
C738        C  0.90302829  0.38111265  0.62536924    -0.09300
C739        C  0.90510059  0.38852238  0.61109417    -0.17000
C740        C  0.90431223  0.38018066  0.59723956     0.25200
C741        C  0.90088631  0.36448269  0.59779618    -0.18600
C742        C  0.89889321  0.35706425  0.61202068    -0.07600
C743        C  0.90791308  0.38738751  0.58253805    -0.14000
C744        C  0.91168451  0.39278652  0.57017145    -0.13700
C745        C  0.91709915  0.39885957  0.55550637     0.25100
C746        C  0.93235327  0.39651953  0.55093507    -0.19100
C747        C  0.93793071  0.40286594  0.53715306    -0.07600
C748        C  0.92849186  0.41216639  0.52769884    -0.03700
C749        C  0.91276541  0.41321751  0.53179935    -0.09000
C750        C  0.90723527  0.40697707  0.54570496    -0.16600
H751        H  0.90424132  0.38768912  0.63591590     0.11500
H752        H  0.90775790  0.40066496  0.61089593     0.10800
H753        H  0.90021550  0.35785187  0.58723008     0.10700
H754        H  0.89677607  0.34482155  0.61209346     0.11300
H755        H  0.94001651  0.38980130  0.55808117     0.11300
H756        H  0.94967516  0.40030779  0.53400632     0.11300
H757        H  0.90488144  0.41948933  0.52449584     0.11400
H758        H  0.89528209  0.40859287  0.54885046     0.10300
C759        C  0.06347457  0.34549245  0.66527737    -0.03600
C760        C  0.05369696  0.33262969  0.66604040    -0.09300
C761        C  0.03781146  0.33446707  0.66758307    -0.17000
C762        C  0.03149414  0.34916132  0.66841646     0.25200
C763        C  0.04115769  0.36204825  0.66783754    -0.18600
C764        C  0.05708671  0.36022959  0.66628664    -0.07600
C765        C  0.01505827  0.35084245  0.66948518    -0.14000
C766        C  0.00118670  0.35099747  0.66991940    -0.13700
C767        C  0.98467010  0.34961141  0.66984237     0.25100
C768        C  0.97534979  0.36206464  0.67378618    -0.19100
C769        C  0.95928839  0.36052920  0.67347565    -0.07600
C770        C  0.95243071  0.34652492  0.66916699    -0.03700
C771        C  0.96189540  0.33408904  0.66530688    -0.09000
C772        C  0.97789725  0.33563181  0.66565777    -0.16600
H773        H  0.05831194  0.32114625  0.66531915     0.11500
H774        H  0.03043477  0.32441797  0.66800089     0.10800
H775        H  0.03638069  0.37347449  0.66846008     0.10700
H776        H  0.06437972  0.37032369  0.66576294     0.11300
H777        H  0.98048038  0.37293942  0.67704596     0.11300
H778        H  0.95224927  0.37028425  0.67650911     0.11300
H779        H  0.95692934  0.32315995  0.66199103     0.11400
H780        H  0.98499986  0.32591753  0.66260515     0.10300
C781        C  0.11421953  0.36050123  0.61658741    -0.03600
C782        C  0.11587231  0.37649077  0.61532091    -0.09300
C783        C  0.11445654  0.38372325  0.60093130    -0.17000
C784        C  0.11142509  0.37508866  0.58760149     0.25200
C785        C  0.11012143  0.35912212  0.58872263    -0.18600
C786        C  0.11150543  0.35187840  0.60309296    -0.07600
C787        C  0.10894896  0.38266096  0.57295023    -0.14000
C788        C  0.10614646  0.38918039  0.56094684    -0.13700
C789        C  0.10184397  0.39727332  0.54703457     0.25100
C790        C  0.10570310  0.41274839  0.54521200    -0.19100
C791        C  0.10032690  0.42099729  0.53244596    -0.07600
C792        C  0.09042245  0.41406448  0.52144890    -0.03700
C793        C  0.08780638  0.39809647  0.52282088    -0.09000
C794        C  0.09323375  0.38987767  0.53556844    -0.16600
H795        H  0.11783902  0.38344135  0.62550562     0.11500
H796        H  0.11542576  0.39608846  0.60025522     0.10800
H797        H  0.10772809  0.35229072  0.57853799     0.10700
H798        H  0.11009905  0.33955302  0.60369461     0.11300
H799        H  0.11270118  0.41853677  0.55380425     0.11300
H800        H  0.10390594  0.43282163  0.53148779     0.11300
H801        H  0.08080332  0.39213567  0.51436260     0.11400
H802        H  0.09035818  0.37783011  0.53666808     0.10300
C803        C  0.00783740  0.07188493  0.45409049    -0.03600
C804        C  0.01853277  0.08083422  0.46258597    -0.09300
C805        C  0.01746635  0.08196928  0.47868898    -0.17000
C806        C  0.00545434  0.07467931  0.48661094     0.25200
C807        C  0.99398883  0.06701639  0.47828468    -0.18600
C808        C  0.99499824  0.06588572  0.46221722    -0.07600
C809        C  0.00516990  0.07453592  0.50327471    -0.14000
C810        C  0.00514179  0.07369455  0.51720159    -0.13700
C811        C  0.00534693  0.07221554  0.53379945     0.25100
C812        C  0.99269823  0.07685254  0.54259421    -0.19100
C813        C  0.99289438  0.07542779  0.55870307    -0.07600
C814        C  0.00599165  0.06964420  0.56645632    -0.03700
C815        C  0.01834860  0.06438648  0.55722563    -0.09000
C816        C  0.01809777  0.06582267  0.54115757    -0.16600
H817        H  0.02786727  0.08689856  0.45701597     0.11500
H818        H  0.02618134  0.08833801  0.48498606     0.10800
H819        H  0.98445590  0.06155451  0.48423913     0.10700
H820        H  0.98615446  0.05949920  0.45613492     0.11300
H821        H  0.98258446  0.08146554  0.53698047     0.11300
H822        H  0.98258305  0.07862239  0.56484042     0.11300
H823        H  0.02839821  0.05937085  0.56258258     0.11400
H824        H  0.02787507  0.06193037  0.53447424     0.10300
C825        C  0.88723226  0.29328094  0.36613690    -0.03600
C826        C  0.87140577  0.29096193  0.36871541    -0.09300
C827        C  0.86553459  0.27612064  0.37088304    -0.17000
C828        C  0.87541505  0.26348237  0.37044809     0.25200
C829        C  0.89114854  0.26572929  0.36778538    -0.18600
C830        C  0.89702152  0.28050296  0.36563861    -0.07600
C831        C  0.86970478  0.24824907  0.37347933    -0.14000
C832        C  0.86601823  0.23537012  0.37700941    -0.13700
C833        C  0.86281545  0.22017941  0.38270018     0.25100
C834        C  0.86144756  0.20772174  0.37255585    -0.19100
C835        C  0.85927705  0.19288424  0.37838301    -0.07600
C836        C  0.85852087  0.19039706  0.39441440    -0.03700
C837        C  0.85969899  0.20300386  0.40446737    -0.09000
C838        C  0.86183438  0.21777257  0.39864127    -0.16600
H839        H  0.86361795  0.30060067  0.36915594     0.11500
H840        H  0.85334443  0.27452026  0.37304365     0.10800
H841        H  0.89892068  0.25605983  0.36752890     0.10700
H842        H  0.90926189  0.28192651  0.36367146     0.11300
H843        H  0.86226088  0.20944585  0.36018963     0.11300
H844        H  0.85837956  0.18336716  0.37039309     0.11300
H845        H  0.85912362  0.20143973  0.41686568     0.11400
H846        H  0.86294243  0.22730612  0.40659927     0.10300
C847        C  0.89571008  0.12508320  0.40875101    -0.03600
C848        C  0.90926477  0.13398412  0.40955429    -0.09300
C849        C  0.92368384  0.12704038  0.41116823    -0.17000
C850        C  0.92486800  0.11106102  0.41200031     0.25200
C851        C  0.91145110  0.10207507  0.41085683    -0.18600
C852        C  0.89697571  0.10902259  0.40922750    -0.07600
C853        C  0.93976631  0.10399605  0.41452235    -0.14000
C854        C  0.95218016  0.09819455  0.41707741    -0.13700
C855        C  0.96678571  0.09097292  0.42066326     0.25100
C856        C  0.96852498  0.07515919  0.41876730    -0.19100
C857        C  0.98219741  0.06788777  0.42317786    -0.07600
C858        C  0.99476102  0.07630381  0.42939056    -0.03700
C859        C  0.99273629  0.09231308  0.43118247    -0.09000
C860        C  0.97901770  0.09953421  0.42679796    -0.16600
H861        H  0.90870073  0.14637721  0.40930652     0.11500
H862        H  0.93389756  0.13417343  0.41204864     0.10800
H863        H  0.91214373  0.08970099  0.41150675     0.10700
H864        H  0.88676106  0.10186272  0.40877047     0.11300
H865        H  0.95908008  0.06830803  0.41430101     0.11300
H866        H  0.98236478  0.05555898  0.42236177     0.11300
H867        H  0.00175164  0.09920943  0.43639093     0.11400
H868        H  0.97783806  0.11176574  0.42854538     0.10300
C869        C  0.86132066  0.19146981  0.63794287    -0.03600
C870        C  0.86781861  0.19419755  0.65257416    -0.09300
C871        C  0.87070557  0.20926646  0.65755600    -0.17000
C872        C  0.86701283  0.22172119  0.64801320     0.25200
C873        C  0.86028343  0.21902601  0.63358795    -0.18600
C874        C  0.85747398  0.20405564  0.62858732    -0.07600
C875        C  0.87054726  0.23728191  0.65257626    -0.14000
C876        C  0.87380658  0.25050191  0.65530818    -0.13700
C877        C  0.87855461  0.26621378  0.65780108     0.25100
C878        C  0.86786660  0.27820484  0.65723369    -0.19100
C879        C  0.87274714  0.29344592  0.65926471    -0.07600
C880        C  0.88838972  0.29683813  0.66185838    -0.03700
C881        C  0.89898376  0.28471038  0.66243158    -0.09000
C882        C  0.89410611  0.26955482  0.66040853    -0.16600
H883        H  0.87096547  0.18471608  0.65997471     0.11500
H884        H  0.87598789  0.21119035  0.66873028     0.10800
H885        H  0.85739828  0.22851739  0.62607766     0.10700
H886        H  0.85243867  0.20233192  0.61726874     0.11300
H887        H  0.85579705  0.27578656  0.65514492     0.11300
H888        H  0.86433870  0.30254767  0.65874379     0.11300
H889        H  0.91110904  0.28693517  0.66438258     0.11400
H890        H  0.90250900  0.26042993  0.66079707     0.10300
C891        C  0.85298756  0.14356712  0.57191835    -0.03600
C892        C  0.85769571  0.15578675  0.56243744    -0.09300
C893        C  0.85694863  0.15444793  0.54639635    -0.17000
C894        C  0.85145531  0.14091505  0.53965354     0.25200
C895        C  0.84668243  0.12869386  0.54899610    -0.18600
C896        C  0.84745278  0.13000037  0.56507965    -0.07600
C897        C  0.85077646  0.13970079  0.52313548    -0.14000
C898        C  0.85056322  0.13961015  0.50923864    -0.13700
C899        C  0.85071148  0.14062573  0.49269434     0.25100
C900        C  0.85003230  0.12735468  0.48362604    -0.19100
C901        C  0.85045280  0.12848049  0.46751566    -0.07600
C902        C  0.85154356  0.14290959  0.46037278    -0.03700
C903        C  0.85216640  0.15616223  0.46958299    -0.09000
C904        C  0.85176245  0.15501244  0.48565052    -0.16600
H905        H  0.86201672  0.16635678  0.56741713     0.11500
H906        H  0.86066965  0.16396465  0.53924783     0.10800
H907        H  0.84239905  0.11817811  0.54385991     0.10700
H908        H  0.84373569  0.12043448  0.57214924     0.11300
H909        H  0.84923940  0.11616584  0.48899736     0.11300
H910        H  0.84995807  0.11810173  0.46066390     0.11300
H911        H  0.85302812  0.16741667  0.46437242     0.11400
H912        H  0.85232684  0.16534376  0.49258510     0.10300
C913        C  0.89781440  0.12516245  0.62211243    -0.03600
C914        C  0.89837836  0.10910633  0.62339391    -0.09300
C915        C  0.91232512  0.10131825  0.62135754    -0.17000
C916        C  0.92589241  0.10946754  0.61804908     0.25200
C917        C  0.92546375  0.12548700  0.61715644    -0.18600
C918        C  0.91155547  0.13327669  0.61917455    -0.07600
C919        C  0.94008454  0.10146100  0.61476735    -0.14000
C920        C  0.95199625  0.09527487  0.61112453    -0.13700
C921        C  0.96618595  0.08848991  0.60568988     0.25100
C922        C  0.97671330  0.09733840  0.59727705    -0.19100
C923        C  0.98995802  0.09065862  0.59106141    -0.07600
C924        C  0.99286854  0.07480782  0.59271125    -0.03700
C925        C  0.98267705  0.06630856  0.60226218    -0.09000
C926        C  0.96937687  0.07302579  0.60841651    -0.16600
H927        H  0.88797439  0.10254459  0.62553007     0.11500
H928        H  0.91245541  0.08892323  0.62202576     0.10800
H929        H  0.93583095  0.13195182  0.61455323     0.10700
H930        H  0.91148897  0.14563501  0.61802872     0.11300
H931        H  0.97454742  0.10938656  0.59525066     0.11300
H932        H  0.99768746  0.09777588  0.58431898     0.11300
H933        H  0.98474700  0.05444445  0.60505060     0.11400
H934        H  0.96151661  0.06609606  0.61521808     0.10300
C935        C  0.15542071  0.19160853  0.63090291    -0.03600
C936        C  0.15219245  0.20347938  0.62042071    -0.09300
C937        C  0.14978248  0.21841270  0.62567129    -0.17000
C938        C  0.15061492  0.22174343  0.64145872     0.25200
C939        C  0.15395345  0.21003713  0.65199702    -0.18600
C940        C  0.15633671  0.19502921  0.64675322    -0.07600
C941        C  0.14747057  0.23708665  0.64670601    -0.14000
C942        C  0.14393232  0.25003919  0.64998869    -0.13700
C943        C  0.13848360  0.26539474  0.65255368     0.25100
C944        C  0.14872889  0.27729160  0.65631482    -0.19100
C945        C  0.14335646  0.29233888  0.65780393    -0.07600
C946        C  0.12768209  0.29559350  0.65552951    -0.03700
C947        C  0.11747109  0.28352830  0.65201936    -0.09000
C948        C  0.12284577  0.26855815  0.65051980    -0.16600
H949        H  0.15137845  0.20119706  0.60814757     0.11500
H950        H  0.14713172  0.22734652  0.61741233     0.10800
H951        H  0.15457489  0.21247501  0.66425382     0.10700
H952        H  0.15882279  0.18611186  0.65506754     0.11300
H953        H  0.16086851  0.27497519  0.65789240     0.11300
H954        H  0.15144056  0.30141260  0.66061770     0.11300
H955        H  0.10532739  0.28567987  0.65026002     0.11400
H956        H  0.11481911  0.25946688  0.64756356     0.10300
C957        C  0.02138040  0.07634264  0.59090774    -0.03600
C958        C  0.02559835  0.07461584  0.60659962    -0.09300
C959        C  0.03919789  0.08126661  0.61240473    -0.17000
C960        C  0.04849747  0.09042936  0.60287726     0.25200
C961        C  0.04367404  0.09347938  0.58780424    -0.18600
C962        C  0.03023481  0.08675981  0.58196090    -0.07600
C963        C  0.06302294  0.09673032  0.60829177    -0.14000
C964        C  0.07537351  0.10239815  0.61160331    -0.13700
C965        C  0.09006196  0.10989569  0.61444521     0.25100
C966        C  0.09092956  0.12592347  0.61485501    -0.19100
C967        C  0.10517565  0.13334929  0.61651911    -0.07600
C968        C  0.11886221  0.12487930  0.61779657    -0.03700
C969        C  0.11790417  0.10877298  0.61777084    -0.09000
C970        C  0.10360577  0.10134153  0.61606827    -0.16600
H971        H  0.01869936  0.06747118  0.61416690     0.11500
H972        H  0.04253965  0.07909489  0.62425373     0.10800
H973        H  0.05040736  0.10100210  0.58044742     0.10700
H974        H  0.02692549  0.08990996  0.57037116     0.11300
H975        H  0.08060616  0.13271697  0.61355638     0.11300
H976        H  0.10551387  0.14575749  0.61641688     0.11300
H977        H  0.12823907  0.10193720  0.61860051     0.11400
H978        H  0.10316019  0.08893771  0.61569986     0.10300
C979        C  0.12933170  0.29541364  0.36001308    -0.03600
C980        C  0.14265869  0.29274988  0.36879960    -0.09300
C981        C  0.14800289  0.27778584  0.37097610    -0.17000
C982        C  0.14016439  0.26536241  0.36428532     0.25200
C983        C  0.12709899  0.26799111  0.35523676    -0.18600
C984        C  0.12169540  0.28290194  0.35313326    -0.07600
C985        C  0.14489701  0.24986716  0.36744335    -0.14000
C986        C  0.14806640  0.23687819  0.37096843    -0.13700
C987        C  0.15119714  0.22166908  0.37661165     0.25100
C988        C  0.15017313  0.20887860  0.36683873    -0.19100
C989        C  0.15272018  0.19411898  0.37270249    -0.07600
C990        C  0.15627917  0.19204505  0.38841018    -0.03700
C991        C  0.15732968  0.20497420  0.39807087    -0.09000
C992        C  0.15480840  0.21964607  0.39221224    -0.16600
H993        H  0.14871997  0.30217779  0.37426906     0.11500
H994        H  0.15807238  0.27588484  0.37809326     0.10800
H995        H  0.12090408  0.25848249  0.35005055     0.10700
H996        H  0.11142764  0.28462575  0.34626569     0.11300
H997        H  0.14731038  0.21030064  0.35474623     0.11300
H998        H  0.15183190  0.18436150  0.36501309     0.11300
H999        H  0.16004807  0.20375360  0.41021679     0.11400
H1000       H  0.15556522  0.22942492  0.39990283     0.10300
C1001       C  0.16796618  0.14369120  0.45506321    -0.03600
C1002       C  0.17086835  0.12923330  0.46157337    -0.09300
C1003       C  0.17148251  0.12745493  0.47763367    -0.17000
C1004       C  0.16922727  0.14010681  0.48731332     0.25200
C1005       C  0.16646273  0.15454528  0.48089298    -0.18600
C1006       C  0.16582893  0.15633915  0.46487752    -0.07600
C1007       C  0.16941776  0.13839319  0.50384189    -0.14000
C1008       C  0.16904103  0.13816298  0.51775958    -0.13700
C1009       C  0.16799061  0.13945076  0.53429478     0.25100
C1010       C  0.16555504  0.15385172  0.54093783    -0.19100
C1011       C  0.16423307  0.15532625  0.55693730    -0.07600
C1012       C  0.16531947  0.14238820  0.56652286    -0.03700
C1013       C  0.16781161  0.12793626  0.55980071    -0.09000
C1014       C  0.16913869  0.12648142  0.54374357    -0.16600
H1015       H  0.17252012  0.11930096  0.45426515     0.11500
H1016       H  0.17360216  0.11622262  0.48248964     0.10800
H1017       H  0.16468045  0.16440862  0.48827931     0.10700
H1018       H  0.16355913  0.16760389  0.46017983     0.11300
H1019       H  0.16461932  0.16395517  0.53373127     0.11300
H1020       H  0.16231597  0.16659353  0.56180175     0.11300
H1021       H  0.16869993  0.11779062  0.56693867     0.11400
H1022       H  0.17099888  0.11527349  0.53871121     0.10300
C1023       C  0.02474047  0.07485717  0.42970179    -0.03600
C1024       C  0.02559211  0.08550842  0.41739096    -0.09300
C1025       C  0.03983679  0.09132718  0.41230494    -0.17000
C1026       C  0.05361392  0.08640385  0.41905182     0.25200
C1027       C  0.05303658  0.07522360  0.43060657    -0.18600
C1028       C  0.03885975  0.06937544  0.43568179    -0.07600
C1029       C  0.06827303  0.09315044  0.41454045    -0.14000
C1030       C  0.08044451  0.09941038  0.41160911    -0.13700
C1031       C  0.09463454  0.10799610  0.40928064     0.25100
C1032       C  0.10711107  0.10177253  0.40111126    -0.19100
C1033       C  0.12093138  0.11013836  0.39951612    -0.07600
C1034       C  0.12240594  0.12486708  0.40601883    -0.03700
C1035       C  0.10974277  0.13105351  0.41397271    -0.09000
C1036       C  0.09604834  0.12269617  0.41561229    -0.16600
H1037       H  0.01537485  0.08945004  0.41154863     0.11500
H1038       H  0.04007864  0.09978195  0.40314624     0.10800
H1039       H  0.06355851  0.07115020  0.43588054     0.10700
H1040       H  0.03886678  0.06086220  0.44477837     0.11300
H1041       H  0.10622915  0.09040672  0.39614251     0.11300
H1042       H  0.13048912  0.10504168  0.39338182     0.11300
H1043       H  0.11050688  0.14229853  0.41922690     0.11400
H1044       H  0.08657819  0.12767303  0.42199731     0.10300
C1045       C  0.93139998  0.44188713  0.01675221    -0.03600
C1046       C  0.92131007  0.44967368  0.00661956    -0.09300
C1047       C  0.91908816  0.46546860  0.00787446    -0.17000
C1048       C  0.92645779  0.47381219  0.01951109     0.25200
C1049       C  0.93567499  0.46622526  0.03026070    -0.18600
C1050       C  0.93789884  0.45041930  0.02906893    -0.07600
C1051       C  0.92513082  0.49023519  0.01993711    -0.14000
C1052       C  0.92511166  0.50404065  0.01946710    -0.13700
C1053       C  0.92681213  0.52038813  0.01805346     0.25100
C1054       C  0.94150372  0.52686821  0.01886020    -0.19100
C1055       C  0.94359764  0.54256180  0.01663501    -0.07600
C1056       C  0.93100725  0.55222104  0.01314463    -0.03700
C1057       C  0.91610505  0.54557302  0.01348329    -0.09000
C1058       C  0.91406298  0.52977981  0.01555962    -0.16600
H1059       H  0.91492164  0.44374467  0.99772418     0.11500
H1060       H  0.91167593  0.47120060  0.99966002     0.10800
H1061       H  0.94133533  0.47255223  0.03943571     0.10700
H1062       H  0.94518189  0.44484662  0.03749781     0.11300
H1063       H  0.95141977  0.51975512  0.02121976     0.11300
H1064       H  0.95514275  0.54698155  0.01808159     0.11300
H1065       H  0.90604043  0.55264280  0.01176703     0.11400
H1066       H  0.90256770  0.52491150  0.01516884     0.10300
C1067       C  0.87485410  0.60104754  0.89927571    -0.03600
C1068       C  0.86631186  0.60011570  0.91306408    -0.09300
C1069       C  0.87378151  0.59927672  0.92738801    -0.17000
C1070       C  0.88989843  0.59936354  0.92816907     0.25200
C1071       C  0.89847263  0.60090850  0.91452771    -0.18600
C1072       C  0.89101499  0.60178818  0.90018553    -0.07600
C1073       C  0.89758690  0.59663193  0.94275492    -0.14000
C1074       C  0.90388596  0.59307477  0.95470338    -0.13700
C1075       C  0.91119092  0.58737844  0.96859274     0.25100
C1076       C  0.91755817  0.59740934  0.97951181    -0.19100
C1077       C  0.92453754  0.59165754  0.99291301    -0.07600
C1078       C  0.92491706  0.57573256  0.99599718    -0.03700
C1079       C  0.91913420  0.56581020  0.98438228    -0.09000
C1080       C  0.91218377  0.57158275  0.97103093    -0.16600
H1081       H  0.85385599  0.59954516  0.91274860     0.11500
H1082       H  0.86698105  0.59806734  0.93781466     0.10800
H1083       H  0.91094080  0.60095153  0.91492725     0.10700
H1084       H  0.89790580  0.60247816  0.88977941     0.11300
H1085       H  0.91716966  0.60967854  0.97766954     0.11300
H1086       H  0.92947699  0.59968583  0.00109741     0.11300
H1087       H  0.92021058  0.55352416  0.98521537     0.11400
H1088       H  0.90770568  0.56365146  0.96248223     0.10300
C1089       C  0.88919911  0.34943099  0.71211755    -0.03600
C1090       C  0.89498099  0.34037302  0.72424000    -0.09300
C1091       C  0.89017135  0.34275553  0.73948739    -0.17000
C1092       C  0.87957746  0.35429529  0.74292645     0.25200
C1093       C  0.87376846  0.36340259  0.73092949    -0.18600
C1094       C  0.87849554  0.36095488  0.71561222    -0.07600
C1095       C  0.87499347  0.35697894  0.75878380    -0.14000
C1096       C  0.87156098  0.35960973  0.77208091    -0.13700
C1097       C  0.86776873  0.36378255  0.78781492     0.25100
C1098       C  0.87349304  0.35537877  0.80037064    -0.19100
C1099       C  0.87053387  0.36014398  0.81558637    -0.07600
C1100       C  0.86182906  0.37339424  0.81840391    -0.03700
C1101       C  0.85586184  0.38153552  0.80572637    -0.09000
C1102       C  0.85881833  0.37677617  0.79059236    -0.16600
H1103       H  0.90322043  0.33138774  0.72192704     0.11500
H1104       H  0.89479776  0.33564171  0.74861194     0.10800
H1105       H  0.86563135  0.37243830  0.73341920     0.10700
H1106       H  0.87391932  0.36815762  0.70654366     0.11300
H1107       H  0.88042528  0.34528277  0.79840267     0.11300
H1108       H  0.87518407  0.35359519  0.82511056     0.11300
H1109       H  0.84903335  0.39173524  0.80749291     0.11400
H1110       H  0.85430234  0.38338880  0.78103602     0.10300
C1111       C  0.85306007  0.43689046  0.85781229    -0.03600
C1112       C  0.86671096  0.44483354  0.85422022    -0.09300
C1113       C  0.86668124  0.46080156  0.85291617    -0.17000
C1114       C  0.85300862  0.46894124  0.85511654     0.25200
C1115       C  0.83934018  0.46108387  0.85850096    -0.18600
C1116       C  0.83935649  0.44514408  0.85985868    -0.07600
C1117       C  0.85306085  0.48538352  0.85441681    -0.14000
C1118       C  0.85303327  0.49917988  0.85443470    -0.13700
C1119       C  0.85305432  0.51563023  0.85504926     0.25100
C1120       C  0.83912756  0.52361704  0.85509505    -0.19100
C1121       C  0.83915906  0.53961121  0.85597985    -0.07600
C1122       C  0.85314457  0.54777587  0.85676976    -0.03700
C1123       C  0.86707359  0.53966437  0.85672382    -0.09000
C1124       C  0.86701484  0.52366911  0.85590078    -0.16600
H1125       H  0.87741148  0.43872776  0.85258740     0.11500
H1126       H  0.87732878  0.46680305  0.85033458     0.10800
H1127       H  0.82870632  0.46728940  0.86024014     0.10700
H1128       H  0.82866652  0.43928769  0.86257385     0.11300
H1129       H  0.82825957  0.51748826  0.85446784     0.11300
H1130       H  0.82826494  0.54559149  0.85592223     0.11300
H1131       H  0.87799725  0.54568223  0.85732036     0.11400
H1132       H  0.87785059  0.51757451  0.85593386     0.10300
C1133       C  0.87742145  0.38999768  0.90370980    -0.03600
C1134       C  0.86952108  0.39266150  0.91764743    -0.09300
C1135       C  0.87758144  0.39498944  0.93146098    -0.17000
C1136       C  0.89369473  0.39471500  0.93164640     0.25200
C1137       C  0.90168957  0.39181401  0.91786236    -0.18600
C1138       C  0.89361244  0.38945177  0.90398278    -0.07600
C1139       C  0.90185776  0.39797577  0.94590060    -0.14000
C1140       C  0.90804845  0.40137159  0.95798922    -0.13700
C1141       C  0.91507917  0.40629196  0.97236910     0.25100
C1142       C  0.92643512  0.41769582  0.97225120    -0.19100
C1143       C  0.93276709  0.42303391  0.98611215    -0.07600
C1144       C  0.92765542  0.41742074  0.00059805    -0.03700
C1145       C  0.91674945  0.40531440  0.00045993    -0.09000
C1146       C  0.91041616  0.39998271  0.98651297    -0.16600
H1147       H  0.85706892  0.39322822  0.91783653     0.11500
H1148       H  0.87122106  0.39725404  0.94197924     0.10800
H1149       H  0.91415959  0.39161450  0.91779119     0.10700
H1150       H  0.90002169  0.38753708  0.89343234     0.11300
H1151       H  0.93029937  0.42261870  0.96142619     0.11300
H1152       H  0.94141452  0.43200835  0.98558367     0.11300
H1153       H  0.91303393  0.39981056  0.01099524     0.11400
H1154       H  0.90181578  0.39094621  0.98678138     0.10300
C1155       C  0.87585053  0.60402476  0.12250398    -0.03600
C1156       C  0.86810268  0.60237641  0.10832879    -0.09300
C1157       C  0.87630779  0.60012472  0.09463854    -0.17000
C1158       C  0.89239353  0.59951061  0.09484233     0.25200
C1159       C  0.90028054  0.60165001  0.10882885    -0.18600
C1160       C  0.89205461  0.60391568  0.12260008    -0.07600
C1161       C  0.90054563  0.59587584  0.08077483    -0.14000
C1162       C  0.90645278  0.59210725  0.06872103    -0.13700
C1163       C  0.91299320  0.58696866  0.05428848     0.25100
C1164       C  0.92614208  0.57784435  0.05431442    -0.19100
C1165       C  0.93233889  0.57259359  0.04040782    -0.07600
C1166       C  0.92575212  0.57655476  0.02598895    -0.03700
C1167       C  0.91208486  0.58531076  0.02625620    -0.09000
C1168       C  0.90591852  0.59057861  0.04023808    -0.16600
H1169       H  0.85564097  0.60234038  0.10787397     0.11500
H1170       H  0.87006148  0.59846456  0.08392622     0.10800
H1171       H  0.91273835  0.60117911  0.10915397     0.10700
H1172       H  0.89832447  0.60506522  0.13335459     0.11300
H1173       H  0.93157801  0.57468584  0.06510995     0.11300
H1174       H  0.94246686  0.56542984  0.04087363     0.11300
H1175       H  0.90577689  0.58785007  0.01583538     0.11400
H1176       H  0.89546860  0.59730137  0.04009139     0.10300
C1177       C  0.86196276  0.38022573  0.21214348    -0.03600
C1178       C  0.87164176  0.36759078  0.21458234    -0.09300
C1179       C  0.87543817  0.36301974  0.22964644    -0.17000
C1180       C  0.86959305  0.37100705  0.24242017     0.25200
C1181       C  0.86003937  0.38363622  0.24003673    -0.18600
C1182       C  0.85626234  0.38821892  0.22504276    -0.07600
C1183       C  0.87334642  0.36634683  0.25798248    -0.14000
C1184       C  0.87651536  0.36267567  0.27106497    -0.13700
C1185       C  0.88091824  0.35815462  0.28649401     0.25100
C1186       C  0.87275359  0.36336752  0.29944795    -0.19100
C1187       C  0.87732803  0.35905690  0.31437621    -0.07600
C1188       C  0.89011420  0.34946721  0.31648020    -0.03700
C1189       C  0.89817897  0.34427989  0.30339671    -0.09000
C1190       C  0.89361656  0.34859046  0.28855325    -0.16600
H1191       H  0.87625153  0.36126835  0.20487525     0.11500
H1192       H  0.88289718  0.35325214  0.23132827     0.10800
H1193       H  0.85547441  0.38994586  0.24978393     0.10700
H1194       H  0.84881983  0.39802480  0.22355212     0.11300
H1195       H  0.86290669  0.37079852  0.29801556     0.11300
H1196       H  0.87092619  0.36323917  0.32423640     0.11300
H1197       H  0.90809821  0.33691341  0.30462694     0.11400
H1198       H  0.90005096  0.34449611  0.27866594     0.10300
C1199       C  0.85070987  0.44274723  0.16830728    -0.03600
C1200       C  0.86403065  0.45064689  0.17307671    -0.09300
C1201       C  0.86475516  0.46661400  0.17215412    -0.17000
C1202       C  0.85216901  0.47482980  0.16651468     0.25200
C1203       C  0.83879595  0.46706488  0.16190511    -0.18600
C1204       C  0.83805843  0.45109243  0.16279028    -0.07600
C1205       C  0.85293518  0.49123321  0.16554185    -0.14000
C1206       C  0.85331506  0.50500172  0.16487107    -0.13700
C1207       C  0.85325822  0.52143257  0.16422995     0.25100
C1208       C  0.84185925  0.52895043  0.15576400    -0.19100
C1209       C  0.84149753  0.54493204  0.15541297    -0.07600
C1210       C  0.85259669  0.55355808  0.16347470    -0.03700
C1211       C  0.86407317  0.54593983  0.17188885    -0.09000
C1212       C  0.86437029  0.52993062  0.17228849    -0.16600
H1213       H  0.87393910  0.44447777  0.17735500     0.11500
H1214       H  0.87513930  0.47254157  0.17577986     0.10800
H1215       H  0.82897607  0.47334773  0.15757136     0.10700
H1216       H  0.82765541  0.44527283  0.15906389     0.11300
H1217       H  0.83319874  0.52245974  0.14951383     0.11300
H1218       H  0.83253990  0.55053767  0.14883837     0.11300
H1219       H  0.87270077  0.55234591  0.17825806     0.11400
H1220       H  0.87319955  0.52418981  0.17892744     0.10300
C1221       C  0.92758609  0.41775004  0.03072628    -0.03600
C1222       C  0.91164902  0.41958205  0.03355279    -0.09300
C1223       C  0.90500830  0.41529760  0.04766031    -0.17000
C1224       C  0.91410006  0.40923690  0.05948323     0.25200
C1225       C  0.92991499  0.40751279  0.05706408    -0.18600
C1226       C  0.93661885  0.41183766  0.04298180    -0.07600
C1227       C  0.90723012  0.40519119  0.07419587    -0.14000
C1228       C  0.90102711  0.40206583  0.08634092    -0.13700
C1229       C  0.89286630  0.39869976  0.10055574     0.25100
C1230       C  0.90012603  0.40046583  0.11492232    -0.19100
C1231       C  0.89186977  0.39800034  0.12864756    -0.07600
C1232       C  0.87620093  0.39379814  0.12819772    -0.03700
C1233       C  0.86910324  0.39174051  0.11373375    -0.09000
C1234       C  0.87737904  0.39414599  0.10004357    -0.16600
H1235       H  0.90433793  0.42462801  0.02481448     0.11500
H1236       H  0.89277403  0.41692491  0.04941072     0.10800
H1237       H  0.93716785  0.40311812  0.06621237     0.10700
H1238       H  0.94898633  0.41106417  0.04217704     0.11300
H1239       H  0.91208166  0.40402399  0.11552677     0.11300
H1240       H  0.89761610  0.39982295  0.13960296     0.11300
H1241       H  0.85704496  0.38859710  0.11299925     0.11400
H1242       H  0.87159338  0.39274440  0.08904091     0.10300
C1243       C  0.06171825  0.57256207  0.00679600    -0.03600
C1244       C  0.05409747  0.57869797  0.01986372    -0.09300
C1245       C  0.03816986  0.58119310  0.01972929    -0.17000
C1246       C  0.02940902  0.57744287  0.00669235     0.25200
C1247       C  0.03666120  0.57120115  0.99375878    -0.18600
C1248       C  0.05252482  0.56862917  0.99386587    -0.07600
C1249       C  0.01287156  0.57908912  0.00683475    -0.14000
C1250       C  0.99896345  0.57950732  0.00676693    -0.13700
C1251       C  0.98234826  0.57878845  0.00676600     0.25100
C1252       C  0.97464581  0.56959291  0.99599379    -0.19100
C1253       C  0.95868097  0.56764388  0.99690322    -0.07600
C1254       C  0.95009853  0.57434118  0.00902312    -0.03700
C1255       C  0.95788321  0.58477665  0.01885704    -0.09000
C1256       C  0.97386778  0.58673748  0.01788895    -0.16600
H1257       H  0.06013021  0.58102741  0.03051587     0.11500
H1258       H  0.03262819  0.58569894  0.02997193     0.10800
H1259       H  0.02999645  0.56799719  0.98366966     0.10700
H1260       H  0.05770035  0.56336262  0.98380935     0.11300
H1261       H  0.98102816  0.56356320  0.98714219     0.11300
H1262       H  0.95309965  0.56005039  0.98871105     0.11300
H1263       H  0.95183774  0.59130636  0.02752360     0.11400
H1264       H  0.97964732  0.59424135  0.02603476     0.10300
C1265       C  0.06308501  0.41591857  0.00765377    -0.03600
C1266       C  0.05359943  0.41950496  0.99486709    -0.09300
C1267       C  0.03768485  0.41710285  0.99531267    -0.17000
C1268       C  0.03070460  0.41128577  0.00862895     0.25200
C1269       C  0.03978276  0.40771278  0.02144974    -0.18600
C1270       C  0.05573877  0.41009159  0.02105748    -0.07600
C1271       C  0.01413288  0.41035779  0.00957607    -0.14000
C1272       C  0.00027414  0.41116538  0.01039319    -0.13700
C1273       C  0.98399800  0.41425777  0.01139733     0.25100
C1274       C  0.97898738  0.42941008  0.01067562    -0.19100
C1275       C  0.96335061  0.43282668  0.01185004    -0.07600
C1276       C  0.95223009  0.42113611  0.01426495    -0.03700
C1277       C  0.95746339  0.40579900  0.01412242    -0.09000
C1278       C  0.97318301  0.40241279  0.01293573    -0.16600
H1279       H  0.05856631  0.42454241  0.98456336     0.11500
H1280       H  0.03076714  0.42022679  0.98539865     0.10800
H1281       H  0.03445819  0.40358699  0.03198906     0.10700
H1282       H  0.06197947  0.40806584  0.03162915     0.11300
H1283       H  0.98720952  0.43866343  0.00906992     0.11300
H1284       H  0.96018146  0.44468731  0.01048030     0.11300
H1285       H  0.94930578  0.39643124  0.01524007     0.11400
H1286       H  0.97687718  0.39058058  0.01323303     0.10300
C1287       C  0.07964746  0.43851736  0.00600840    -0.03600
C1288       C  0.08434400  0.44686997  0.99277961    -0.09300
C1289       C  0.08332899  0.46287171  0.99236779    -0.17000
C1290       C  0.07722343  0.47090594  0.00490943     0.25200
C1291       C  0.07172801  0.46284200  0.01771784    -0.18600
C1292       C  0.07270826  0.44687532  0.01816924    -0.07600
C1293       C  0.07663006  0.48741807  0.00468456    -0.14000
C1294       C  0.07643425  0.50125333  0.00474257    -0.13700
C1295       C  0.07665526  0.51777988  0.00493215     0.25100
C1296       C  0.08253358  0.52589001  0.99231772    -0.19100
C1297       C  0.08327703  0.54189843  0.99263944    -0.07600
C1298       C  0.07855645  0.55023451  0.00586102    -0.03700
C1299       C  0.07174656  0.54180118  0.01807108    -0.09000
C1300       C  0.07104975  0.52578625  0.01771820    -0.16600
H1301       H  0.08853035  0.44124108  0.98251700     0.11500
H1302       H  0.08725967  0.46898149  0.98219746     0.10800
H1303       H  0.06672788  0.46889700  0.02741262     0.10700
H1304       H  0.06830451  0.44096058  0.02825319     0.11300
H1305       H  0.08650638  0.51982990  0.98215356     0.11300
H1306       H  0.08727572  0.54754587  0.98228934     0.11300
H1307       H  0.06724145  0.54769288  0.02810032     0.11400
H1308       H  0.06618542  0.51965492  0.02746081     0.10300
C1309       C  0.15270684  0.37932964  0.80923448    -0.03600
C1310       C  0.16076976  0.38586393  0.79672418    -0.09300
C1311       C  0.15746692  0.38148685  0.78150938    -0.17000
C1312       C  0.14601231  0.37054249  0.77848679     0.25200
C1313       C  0.13791055  0.36395830  0.79087230    -0.18600
C1314       C  0.14125426  0.36828727  0.80614840    -0.07600
C1315       C  0.14255422  0.36621651  0.76269023    -0.14000
C1316       C  0.13957724  0.36277455  0.74945652    -0.13700
C1317       C  0.13538468  0.35857282  0.73381095     0.25100
C1318       C  0.12266659  0.34898649  0.73127953    -0.19100
C1319       C  0.11818745  0.34517973  0.71623836    -0.07600
C1320       C  0.12634104  0.35089862  0.70340010    -0.03700
C1321       C  0.13924561  0.36036857  0.70597299    -0.09000
C1322       C  0.14372552  0.36419041  0.72109908    -0.16600
H1323       H  0.16966571  0.39438860  0.79869823     0.11500
H1324       H  0.16383130  0.38669159  0.77209012     0.10800
H1325       H  0.12898435  0.35550173  0.78872486     0.10700
H1326       H  0.13481691  0.36310260  0.81551868     0.11300
H1327       H  0.11610945  0.34453422  0.74095289     0.11300
H1328       H  0.10822565  0.33782214  0.71466496     0.11300
H1329       H  0.14576042  0.36491146  0.69632404     0.11400
H1330       H  0.15360855  0.37161250  0.72287163     0.10300
C1331       C  0.14119832  0.38992314  0.89659988    -0.03600
C1332       C  0.14971253  0.39289672  0.91012955    -0.09300
C1333       C  0.14234638  0.39422998  0.92446620    -0.17000
C1334       C  0.12633242  0.39260834  0.92558592     0.25200
C1335       C  0.11779551  0.38920115  0.91223603    -0.18600
C1336       C  0.12516732  0.38784734  0.89784633    -0.07600
C1337       C  0.11869446  0.39520618  0.94026865    -0.14000
C1338       C  0.11251225  0.39815501  0.95247515    -0.13700
C1339       C  0.10501718  0.40251340  0.96679770     0.25100
C1340       C  0.11223338  0.41268127  0.97704753    -0.19100
C1341       C  0.10450445  0.41781123  0.99028487    -0.07600
C1342       C  0.08908973  0.41341657  0.99330542    -0.03700
C1343       C  0.08250821  0.40212459  0.98352398    -0.09000
C1344       C  0.09029444  0.39695059  0.97033872    -0.16600
H1345       H  0.16206278  0.39459402  0.90958084     0.11500
H1346       H  0.14912850  0.39687703  0.93463744     0.10800
H1347       H  0.10539757  0.38793075  0.91288405     0.10700
H1348       H  0.11828710  0.38562178  0.88764943     0.11300
H1349       H  0.12374502  0.41689973  0.97466225     0.11300
H1350       H  0.11029423  0.42589837  0.99782891     0.11300
H1351       H  0.07130088  0.39722444  0.98584103     0.11400
H1352       H  0.08470846  0.38872968  0.96277921     0.10300
C1353       C  0.15775760  0.55165313  0.85048490    -0.03600
C1354       C  0.17087109  0.54238036  0.84919126    -0.09300
C1355       C  0.16938647  0.52647384  0.84863036    -0.17000
C1356       C  0.15479881  0.51965799  0.84936900     0.25200
C1357       C  0.14164488  0.52879376  0.85042079    -0.18600
C1358       C  0.14310625  0.54475396  0.85094990    -0.07600
C1359       C  0.15351044  0.50327022  0.84947491    -0.14000
C1360       C  0.15351924  0.48949548  0.84984793    -0.13700
C1361       C  0.15482091  0.47313345  0.85043405     0.25100
C1362       C  0.14170428  0.46380350  0.84934888    -0.19100
C1363       C  0.14315007  0.44785747  0.84981268    -0.07600
C1364       C  0.15774366  0.44116153  0.85137702    -0.03700
C1365       C  0.17083139  0.45063899  0.85249961    -0.09000
C1366       C  0.16936395  0.46653344  0.85203541    -0.16600
H1367       H  0.18229219  0.54741304  0.84877259     0.11500
H1368       H  0.17962834  0.51948124  0.84780975     0.10800
H1369       H  0.13030613  0.52358636  0.85100888     0.10700
H1370       H  0.13283746  0.55166766  0.85195534     0.11300
H1371       H  0.13039694  0.46884317  0.84813043     0.11300
H1372       H  0.13289669  0.44078625  0.84897194     0.11300
H1373       H  0.18220767  0.44577059  0.85375164     0.11400
H1374       H  0.17957467  0.47367844  0.85290545     0.10300
C1375       C  0.14231445  0.60011295  0.89776958    -0.03600
C1376       C  0.15036043  0.59483256  0.91082073    -0.09300
C1377       C  0.14279245  0.59277765  0.92495569    -0.17000
C1378       C  0.12706493  0.59596039  0.92629556     0.25200
C1379       C  0.11903424  0.60156019  0.91344673    -0.18600
C1380       C  0.12660708  0.60365428  0.89927904    -0.07600
C1381       C  0.11911819  0.59294071  0.94067987    -0.14000
C1382       C  0.11254805  0.58986366  0.95262455    -0.13700
C1383       C  0.10459196  0.58558314  0.96667688     0.25100
C1384       C  0.08972888  0.59095449  0.96959315    -0.19100
C1385       C  0.08160157  0.58601667  0.98267484    -0.07600
C1386       C  0.08800506  0.57515078  0.99294297    -0.03700
C1387       C  0.10351513  0.57091183  0.99047097    -0.09000
C1388       C  0.11157937  0.57580983  0.97735105    -0.16600
H1389       H  0.16244823  0.59195430  0.91001945     0.11500
H1390       H  0.14915611  0.58842809  0.93476936     0.10800
H1391       H  0.10685502  0.60404171  0.91429873     0.10700
H1392       H  0.12009019  0.60763735  0.88941670     0.11300
H1393       H  0.08432907  0.59887585  0.96165643     0.11300
H1394       H  0.07030581  0.59077726  0.98454500     0.11300
H1395       H  0.10913366  0.56312176  0.99837827     0.11400
H1396       H  0.12318724  0.57175231  0.97541326     0.10300
C1397       C  0.14156695  0.60361546  0.11586821    -0.03600
C1398       C  0.12535988  0.60335126  0.11571108    -0.09300
C1399       C  0.11728277  0.60096056  0.10183888    -0.17000
C1400       C  0.12526363  0.59885358  0.08790530     0.25200
C1401       C  0.14138359  0.59958876  0.08792760    -0.18600
C1402       C  0.14946079  0.60193936  0.10175967    -0.07600
C1403       C  0.11705939  0.59512328  0.07376130    -0.14000
C1404       C  0.11057040  0.59118702  0.06198248    -0.13700
C1405       C  0.10308619  0.58551074  0.04809617     0.25100
C1406       C  0.10345051  0.56986239  0.04462532    -0.19100
C1407       C  0.09609739  0.56414840  0.03140651    -0.07600
C1408       C  0.08769345  0.57390643  0.02145558    -0.03700
C1409       C  0.08818875  0.58980166  0.02470592    -0.09000
C1410       C  0.09560363  0.59549534  0.03794309    -0.16600
H1411       H  0.11894602  0.60447215  0.12637660     0.11500
H1412       H  0.10482165  0.60038190  0.10205266     0.10800
H1413       H  0.14775084  0.59795860  0.07729423     0.10700
H1414       H  0.16192759  0.60200540  0.10147169     0.11300
H1415       H  0.10953811  0.56201852  0.05212583     0.11300
H1416       H  0.09734545  0.55207507  0.02904187     0.11300
H1417       H  0.08247477  0.59780427  0.01709069     0.11400
H1418       H  0.09544269  0.60769128  0.04027110     0.10300
C1419       C  0.15101067  0.38025000  0.20601951    -0.03600
C1420       C  0.15611337  0.38896072  0.21874760    -0.09300
C1421       C  0.15335187  0.38402064  0.23388059    -0.17000
C1422       C  0.14544063  0.37027571  0.23662870     0.25200
C1423       C  0.14021647  0.36153671  0.22402591    -0.18600
C1424       C  0.14298445  0.36648049  0.20881383    -0.07600
C1425       C  0.14257745  0.36536151  0.25238064    -0.14000
C1426       C  0.13992347  0.36171766  0.26563565    -0.13700
C1427       C  0.13578153  0.35752121  0.28131129     0.25100
C1428       C  0.12215890  0.34930904  0.28398297    -0.19100
C1429       C  0.11762750  0.34567791  0.29905591    -0.07600
C1430       C  0.12663438  0.35019362  0.31180908    -0.03700
C1431       C  0.14043993  0.35826504  0.30909224    -0.09000
C1432       C  0.14497049  0.36192062  0.29392929    -0.16600
H1433       H  0.16232893  0.39961638  0.21701692     0.11500
H1434       H  0.15741802  0.39094307  0.24345772     0.10800
H1435       H  0.13402449  0.35089719  0.22595251     0.10700
H1436       H  0.13892816  0.35952378  0.19926861     0.11300
H1437       H  0.11492570  0.34582074  0.27439333     0.11300
H1438       H  0.10696474  0.33939972  0.30072475     0.11300
H1439       H  0.14763581  0.36184880  0.31866371     0.11400
H1440       H  0.15555100  0.36828674  0.29206303     0.10300
C1441       C  0.15901115  0.44287992  0.16234988    -0.03600
C1442       C  0.17050139  0.45180070  0.15522458    -0.09300
C1443       C  0.16972975  0.46776178  0.15562930    -0.17000
C1444       C  0.15749046  0.47496201  0.16315826     0.25200
C1445       C  0.14594819  0.46617583  0.17021414    -0.18600
C1446       C  0.14668247  0.45018647  0.16979447    -0.07600
C1447       C  0.15691277  0.49137499  0.16364432    -0.14000
C1448       C  0.15720650  0.50515466  0.16363540    -0.13700
C1449       C  0.15854297  0.52153221  0.16307553     0.25100
C1450       C  0.14545001  0.53072409  0.16433300    -0.19100
C1451       C  0.14684995  0.54666618  0.16339632    -0.07600
C1452       C  0.16137484  0.55351056  0.16118022    -0.03700
C1453       C  0.17445419  0.54418074  0.16002016    -0.09000
C1454       C  0.17303175  0.52827854  0.16095881    -0.16600
H1455       H  0.18010073  0.44644587  0.14938307     0.11500
H1456       H  0.17870475  0.47448873  0.15012202     0.10800
H1457       H  0.13643232  0.47167362  0.17606720     0.10700
H1458       H  0.13769390  0.44355317  0.17537521     0.11300
H1459       H  0.13418257  0.52557613  0.16594411     0.11300
H1460       H  0.13659933  0.55361823  0.16431898     0.11300
H1461       H  0.18577347  0.54916780  0.15830598     0.11400
H1462       H  0.18322184  0.52123752  0.15994315     0.10300
C1463       C  0.08929900  0.41552930  0.02189549    -0.03600
C1464       C  0.09761677  0.42584235  0.03145415    -0.09300
C1465       C  0.10448170  0.42092732  0.04518715    -0.17000
C1466       C  0.10376618  0.40552608  0.04954930     0.25200
C1467       C  0.09669051  0.39491024  0.03965811    -0.18600
C1468       C  0.08978182  0.39981161  0.02586893    -0.07600
C1469       C  0.11037478  0.40081020  0.06415486    -0.14000
C1470       C  0.11616168  0.39786241  0.07653253    -0.13700
C1471       C  0.12372032  0.39532003  0.09123137     0.25100
C1472       C  0.11515367  0.39388797  0.10491041    -0.19100
C1473       C  0.12265131  0.39233582  0.11920370    -0.07600
C1474       C  0.13883368  0.39223319  0.12000061    -0.03700
C1475       C  0.14730675  0.39341661  0.10618135    -0.09000
C1476       C  0.13981679  0.39494256  0.09194966    -0.16600
H1477       H  0.09899394  0.43778605  0.02848958     0.11500
H1478       H  0.11034672  0.42921779  0.05245761     0.10800
H1479       H  0.09633871  0.38286857  0.04267809     0.10700
H1480       H  0.08419879  0.39138732  0.01854662     0.11300
H1481       H  0.10269257  0.39424558  0.10456493     0.11300
H1482       H  0.11581703  0.39160264  0.12964396     0.11300
H1483       H  0.15977502  0.39349141  0.10639327     0.11400
H1484       H  0.14661424  0.39611062  0.08151486     0.10300
C1485       C  0.58325006  0.48910881  0.95468168    -0.03600
C1486       C  0.59812101  0.48944101  0.96137668    -0.09300
C1487       C  0.60005216  0.48949438  0.97744981    -0.17000
C1488       C  0.58721417  0.48851739  0.98716961     0.25200
C1489       C  0.57257872  0.48664370  0.98074921    -0.18600
C1490       C  0.57061130  0.48667262  0.96474254    -0.07600
C1491       C  0.58878101  0.48979487  0.00371359    -0.14000
C1492       C  0.58874093  0.49120521  0.01759593    -0.13700
C1493       C  0.58734594  0.49276613  0.03413215     0.25100
C1494       C  0.59342865  0.48159960  0.04389886    -0.19100
C1495       C  0.59097063  0.48238704  0.05984616    -0.07600
C1496       C  0.58187720  0.49416112  0.06639586    -0.03700
C1497       C  0.57692038  0.50599284  0.05642266    -0.09000
C1498       C  0.57937174  0.50514763  0.04047024    -0.16600
H1499       H  0.60822068  0.49042720  0.95409722     0.11500
H1500       H  0.61151649  0.49058025  0.98226989     0.10800
H1501       H  0.56259136  0.48533221  0.98814905     0.10700
H1502       H  0.55909225  0.48474165  0.96044543     0.11300
H1503       H  0.59996174  0.47215048  0.03917024     0.11300
H1504       H  0.59630019  0.47367138  0.06685097     0.11300
H1505       H  0.57049258  0.51558772  0.06097787     0.11400
H1506       H  0.57478036  0.51401581  0.03305560     0.10300
C1507       C  0.70605010  0.34112107  0.89490820    -0.03600
C1508       C  0.71845493  0.33873477  0.90504350    -0.09300
C1509       C  0.73360804  0.34044990  0.89990784    -0.17000
C1510       C  0.73658732  0.34463087  0.88460092     0.25200
C1511       C  0.72431375  0.34686320  0.87434890    -0.18600
C1512       C  0.70910191  0.34504301  0.87945305    -0.07600
C1513       C  0.75220778  0.34748825  0.87979273    -0.14000
C1514       C  0.76528596  0.35092831  0.87657786    -0.13700
C1515       C  0.78053863  0.35660066  0.87334089     0.25100
C1516       C  0.78227530  0.37083040  0.86612458    -0.19100
C1517       C  0.79693151  0.37701848  0.86379594    -0.07600
C1518       C  0.81009715  0.36903330  0.86861640    -0.03700
C1519       C  0.80833662  0.35459599  0.87560618    -0.09000
C1520       C  0.79359042  0.34843682  0.87802292    -0.16600
H1521       H  0.71644152  0.33562741  0.91698888     0.11500
H1522       H  0.74300230  0.33875780  0.90795438     0.10800
H1523       H  0.72649173  0.35021641  0.86249591     0.10700
H1524       H  0.69975041  0.34696822  0.87142320     0.11300
H1525       H  0.77227057  0.37727039  0.86250939     0.11300
H1526       H  0.79794935  0.38813737  0.85832152     0.11300
H1527       H  0.81830211  0.34824472  0.87945286     0.11400
H1528       H  0.79236113  0.33744478  0.88371646     0.10300
C1529       C  0.63852403  0.37814142  0.90681910    -0.03600
C1530       C  0.62236318  0.37873658  0.90580543    -0.09300
C1531       C  0.61460995  0.39272821  0.90760590    -0.17000
C1532       C  0.62289948  0.40631356  0.91038970     0.25200
C1533       C  0.63900065  0.40582354  0.91096185    -0.18600
C1534       C  0.64673908  0.39189503  0.90919964    -0.07600
C1535       C  0.61503286  0.42065215  0.91335604    -0.14000
C1536       C  0.60902831  0.43277165  0.91653533    -0.13700
C1537       C  0.60212153  0.44721054  0.92104740     0.25100
C1538       C  0.60913226  0.46118127  0.91716091    -0.19100
C1539       C  0.60268392  0.47512295  0.92195129    -0.07600
C1540       C  0.58878868  0.47547205  0.93051848    -0.03700
C1541       C  0.58222843  0.46118055  0.93474417    -0.09000
C1542       C  0.58867969  0.44730465  0.92993020    -0.16600
H1543       H  0.61570717  0.36833766  0.90412686     0.11500
H1544       H  0.60214687  0.39288752  0.90716746     0.10800
H1545       H  0.64559224  0.41618315  0.91312620     0.10700
H1546       H  0.65917414  0.39183842  0.91012574     0.11300
H1547       H  0.61977428  0.46130902  0.91062834     0.11300
H1548       H  0.60898432  0.48547614  0.91925281     0.11300
H1549       H  0.57194829  0.46078946  0.94181743     0.11400
H1550       H  0.58323879  0.43661670  0.93330587     0.10300
C1551       C  0.70166440  0.35195921  0.13422740    -0.03600
C1552       C  0.71448032  0.35072087  0.12437314    -0.09300
C1553       C  0.72942216  0.35247941  0.13013783    -0.17000
C1554       C  0.73181883  0.35550403  0.14583328     0.25200
C1555       C  0.71912425  0.35677250  0.15575616    -0.18600
C1556       C  0.70412354  0.35498261  0.14999833    -0.07600
C1557       C  0.74729595  0.35783330  0.15150555    -0.14000
C1558       C  0.76037939  0.36061003  0.15541216    -0.13700
C1559       C  0.77586064  0.36543354  0.15919425     0.25100
C1560       C  0.78847831  0.35583862  0.15642831    -0.19100
C1561       C  0.80354240  0.36123682  0.15888780    -0.07600
C1562       C  0.80610989  0.37631836  0.16406737    -0.03700
C1563       C  0.79334588  0.38568011  0.16719343    -0.09000
C1564       C  0.77837119  0.38027833  0.16477546    -0.16600
H1565       H  0.71296263  0.34838215  0.11217826     0.11500
H1566       H  0.73911728  0.35155944  0.12231774     0.10800
H1567       H  0.72081344  0.35921208  0.16791231     0.10700
H1568       H  0.69447225  0.35599619  0.15784775     0.11300
H1569       H  0.78669352  0.34432772  0.15206400     0.11300
H1570       H  0.81315228  0.35377270  0.15641158     0.11300
H1571       H  0.79493336  0.39732597  0.17124825     0.11400
H1572       H  0.76874244  0.38782977  0.16693159     0.10300
C1573       C  0.65355424  0.33479296  0.95856467    -0.03600
C1574       C  0.66577043  0.33713477  0.96893745    -0.09300
C1575       C  0.66324809  0.33631085  0.98482386    -0.17000
C1576       C  0.64851455  0.33312559  0.99054745     0.25200
C1577       C  0.63624565  0.33076926  0.98031906    -0.18600
C1578       C  0.63875111  0.33159820  0.96437013    -0.07600
C1579       C  0.64618544  0.33271610  0.00695934    -0.14000
C1580       C  0.64600603  0.33333439  0.02084644    -0.13700
C1581       C  0.64777557  0.33528161  0.03721886     0.25100
C1582       C  0.63620203  0.33058395  0.04744820    -0.19100
C1583       C  0.63806573  0.33284480  0.06334078    -0.07600
C1584       C  0.65153805  0.33980596  0.06910337    -0.03700
C1585       C  0.66310333  0.34442405  0.05873855    -0.09000
C1586       C  0.66121496  0.34217389  0.04289452    -0.16600
H1587       H  0.67727646  0.33962415  0.96477628     0.11500
H1588       H  0.67279735  0.33821998  0.99266355     0.10800
H1589       H  0.62478389  0.32835657  0.98465476     0.10700
H1590       H  0.62914770  0.32974393  0.95659907     0.11300
H1591       H  0.62576206  0.32523090  0.04315389     0.11300
H1592       H  0.62901142  0.32912835  0.07110924     0.11300
H1593       H  0.67360152  0.34978046  0.06287352     0.11400
H1594       H  0.67023377  0.34585066  0.03505126     0.10300
C1595       C  0.63189770  0.38519333  0.11945757    -0.03600
C1596       C  0.61576542  0.38475358  0.12102335    -0.09300
C1597       C  0.60711281  0.39826384  0.11981741    -0.17000
C1598       C  0.61449292  0.41236076  0.11711672     0.25200
C1599       C  0.63054652  0.41285778  0.11580935    -0.18600
C1600       C  0.63916829  0.39942065  0.11694720    -0.07600
C1601       C  0.60578009  0.42627002  0.11484041    -0.14000
C1602       C  0.59954333  0.43824799  0.11171954    -0.13700
C1603       C  0.59305285  0.45250581  0.10630220     0.25100
C1604       C  0.59859857  0.46661396  0.11174587    -0.19100
C1605       C  0.59353424  0.48038284  0.10514285    -0.07600
C1606       C  0.58312768  0.48029908  0.09256368    -0.03700
C1607       C  0.57684575  0.46595393  0.08807581    -0.09000
C1608       C  0.58187875  0.45227614  0.09470847    -0.16600
H1609       H  0.60983351  0.37394821  0.12279758     0.11500
H1610       H  0.59468330  0.39767372  0.12072772     0.10800
H1611       H  0.63641216  0.42363293  0.11361936     0.10700
H1612       H  0.65154831  0.40014258  0.11559616     0.11300
H1613       H  0.60706121  0.46697841  0.12093374     0.11300
H1614       H  0.59794315  0.49094331  0.10995125     0.11300
H1615       H  0.56842973  0.46531812  0.07886544     0.11400
H1616       H  0.57734266  0.44147564  0.09046205     0.10300
C1617       C  0.70451073  0.63805551  0.88351562    -0.03600
C1618       C  0.71742953  0.63761520  0.89329369    -0.09300
C1619       C  0.73214544  0.63535565  0.88723805    -0.17000
C1620       C  0.73421845  0.63353568  0.87131986     0.25200
C1621       C  0.72144002  0.63407001  0.86144061    -0.18600
C1622       C  0.70664460  0.63633204  0.86750351    -0.07600
C1623       C  0.74945855  0.63067911  0.86539270    -0.14000
C1624       C  0.76252336  0.62770889  0.86172665    -0.13700
C1625       C  0.77821166  0.62322433  0.85877453     0.25100
C1626       C  0.78128828  0.60849592  0.85322131    -0.19100
C1627       C  0.79647846  0.60346307  0.85185543    -0.07600
C1628       C  0.80883055  0.61307606  0.85610505    -0.03700
C1629       C  0.80569767  0.62803443  0.86120706    -0.09000
C1630       C  0.79045862  0.63306761  0.86254819    -0.16600
H1631       H  0.71615483  0.63888093  0.90567414     0.11500
H1632       H  0.74191400  0.63490026  0.89500882     0.10800
H1633       H  0.72289248  0.63261677  0.84909818     0.10700
H1634       H  0.69689289  0.63660875  0.85971641     0.11300
H1635       H  0.77192973  0.60074484  0.85033578     0.11300
H1636       H  0.79853359  0.59188407  0.84787652     0.11300
H1637       H  0.81498777  0.63568219  0.86452694     0.11400
H1638       H  0.78822261  0.64447706  0.86691752     0.10300
C1639       C  0.63966674  0.60046593  0.89996622    -0.03600
C1640       C  0.62378830  0.59915775  0.89702698    -0.09300
C1641       C  0.61610084  0.58513309  0.89925959    -0.17000
C1642       C  0.62418193  0.57222399  0.90439205     0.25200
C1643       C  0.64009222  0.57333959  0.90681564    -0.18600
C1644       C  0.64777258  0.58732156  0.90461900    -0.07600
C1645       C  0.61611069  0.55810911  0.90806816    -0.14000
C1646       C  0.60969326  0.54642532  0.91214250    -0.13700
C1647       C  0.60245194  0.53267788  0.91818847     0.25100
C1648       C  0.59688205  0.52121444  0.90830543    -0.19100
C1649       C  0.59015237  0.50784822  0.91437449    -0.07600
C1650       C  0.58930885  0.50532926  0.93050209    -0.03700
C1651       C  0.59426432  0.51747502  0.94022802    -0.09000
C1652       C  0.60090109  0.53081178  0.93414233    -0.16600
H1653       H  0.61722502  0.60908662  0.89353831     0.11500
H1654       H  0.60378459  0.58446972  0.89737573     0.10800
H1655       H  0.64651025  0.56349435  0.91081060     0.10700
H1656       H  0.65999684  0.58795170  0.90702692     0.11300
H1657       H  0.59770966  0.52260055  0.89589823     0.11300
H1658       H  0.58576388  0.49927227  0.90644529     0.11300
H1659       H  0.59271618  0.51707974  0.95259308     0.11400
H1660       H  0.60473548  0.53976654  0.94194658     0.10300
C1661       C  0.70316336  0.64372794  0.13028051    -0.03600
C1662       C  0.70465257  0.64313643  0.14644446    -0.09300
C1663       C  0.71910038  0.64074293  0.15320533    -0.17000
C1664       C  0.73213501  0.63894291  0.14385219     0.25200
C1665       C  0.73073839  0.63981825  0.12778802    -0.18600
C1666       C  0.71637509  0.64221100  0.12103915    -0.07600
C1667       C  0.74694294  0.63560398  0.15043231    -0.14000
C1668       C  0.75984287  0.63222256  0.15419437    -0.13700
C1669       C  0.77552262  0.62768731  0.15682361     0.25100
C1670       C  0.78758837  0.63606077  0.15010743    -0.19100
C1671       C  0.80279564  0.63108729  0.15164227    -0.07600
C1672       C  0.80607186  0.61761155  0.15984169    -0.03700
C1673       C  0.79389405  0.60932151  0.16664970    -0.09000
C1674       C  0.77871311  0.61435083  0.16516554    -0.16600
H1675       H  0.69465570  0.64434169  0.15381468     0.11500
H1676       H  0.72006727  0.64008950  0.16566403     0.10800
H1677       H  0.74074539  0.63843123  0.12044765     0.10700
H1678       H  0.71558592  0.64265684  0.10856097     0.11300
H1679       H  0.78521628  0.64630464  0.14347233     0.11300
H1680       H  0.81194485  0.63761557  0.14620130     0.11300
H1681       H  0.79609441  0.59888242  0.17302217     0.11400
H1682       H  0.76945832  0.60770689  0.17029370     0.10300
C1683       C  0.65467747  0.64560572  0.95031419    -0.03600
C1684       C  0.66759052  0.64654136  0.96003297    -0.09300
C1685       C  0.66575481  0.64741787  0.97600063    -0.17000
C1686       C  0.65101143  0.64731841  0.98247848     0.25200
C1687       C  0.63803396  0.64641338  0.97290844    -0.18600
C1688       C  0.63985268  0.64559967  0.95685589    -0.07600
C1689       C  0.64947692  0.64814161  0.99897151    -0.14000
C1690       C  0.64978831  0.64887561  0.01285404    -0.13700
C1691       C  0.65164683  0.64972915  0.02931682     0.25100
C1692       C  0.63878759  0.65090245  0.03896744    -0.19100
C1693       C  0.64070921  0.65149944  0.05498989    -0.07600
C1694       C  0.65552444  0.65089326  0.06149630    -0.03700
C1695       C  0.66838821  0.64989709  0.05170741    -0.09000
C1696       C  0.66644407  0.64931281  0.03570322    -0.16600
H1697       H  0.67913201  0.64663170  0.95529080     0.11500
H1698       H  0.67586025  0.64814678  0.98331396     0.10800
H1699       H  0.62656625  0.64632500  0.97783572     0.10700
H1700       H  0.62972358  0.64487110  0.94959069     0.11300
H1701       H  0.62729312  0.65124771  0.03412306     0.11300
H1702       H  0.63061039  0.65223676  0.06228748     0.11300
H1703       H  0.67992444  0.64939401  0.05642312     0.11400
H1704       H  0.67647240  0.64842607  0.02831182     0.10300
C1705       C  0.63941397  0.60612579  0.11271258    -0.03600
C1706       C  0.62331715  0.60503741  0.11421311    -0.09300
C1707       C  0.61574861  0.59090114  0.11230221    -0.17000
C1708       C  0.62414695  0.57761553  0.10897146     0.25200
C1709       C  0.64024112  0.57851706  0.10809755    -0.18600
C1710       C  0.64781275  0.59264339  0.10992103    -0.07600
C1711       C  0.61625042  0.56327424  0.10568392    -0.14000
C1712       C  0.60965453  0.55142891  0.10237273    -0.13700
C1713       C  0.60167641  0.53739518  0.09809267     0.25100
C1714       C  0.60989713  0.52471661  0.09271881    -0.19100
C1715       C  0.60215096  0.51122802  0.08844620    -0.07600
C1716       C  0.58594859  0.50987594  0.08970712    -0.03700
C1717       C  0.57782238  0.52303407  0.09467565    -0.09000
C1718       C  0.58561127  0.53650259  0.09894152    -0.16600
H1719       H  0.61652707  0.61520523  0.11627965     0.11500
H1720       H  0.60330262  0.59041553  0.11302731     0.10800
H1721       H  0.64692451  0.56836922  0.10558508     0.10700
H1722       H  0.66022005  0.59308651  0.10872015     0.11300
H1723       H  0.62232108  0.52527624  0.09171498     0.11300
H1724       H  0.60884470  0.50171984  0.08409987     0.11300
H1725       H  0.56540438  0.52331652  0.09490610     0.11400
H1726       H  0.57903562  0.54633372  0.10271805     0.10300
C1727       C  0.56008266  0.49532199  0.08658400    -0.03600
C1728       C  0.54926595  0.49275864  0.07459836    -0.09300
C1729       C  0.53349175  0.49229608  0.07762306    -0.17000
C1730       C  0.52800332  0.49391625  0.09268439     0.25200
C1731       C  0.53842821  0.49600171  0.10482035    -0.18600
C1732       C  0.55428277  0.49654607  0.10182800    -0.07600
C1733       C  0.51164672  0.49298266  0.09539036    -0.14000
C1734       C  0.49778025  0.49196494  0.09544642    -0.13700
C1735       C  0.48141341  0.49083109  0.09289687     0.25100
C1736       C  0.47094337  0.49182439  0.10512349    -0.19100
C1737       C  0.45508202  0.49150246  0.10217884    -0.07600
C1738       C  0.44934503  0.49064215  0.08689350    -0.03700
C1739       C  0.46018577  0.48847540  0.07487928    -0.09000
C1740       C  0.47597055  0.48885171  0.07785043    -0.16600
H1741       H  0.55274361  0.49051313  0.06285625     0.11500
H1742       H  0.52553883  0.49034681  0.06816481     0.10800
H1743       H  0.53433723  0.49705753  0.11659250     0.10700
H1744       H  0.56213874  0.49791512  0.11145208     0.11300
H1745       H  0.47501259  0.49304229  0.11689029     0.11300
H1746       H  0.44719100  0.49246294  0.11181541     0.11300
H1747       H  0.45671632  0.48632471  0.06310383     0.11400
H1748       H  0.48397688  0.48761790  0.06832941     0.10300
C1749       C  0.43254131  0.49170246  0.95501896    -0.03600
C1750       C  0.41732617  0.49156442  0.96092201    -0.09300
C1751       C  0.41449530  0.49105844  0.97681489    -0.17000
C1752       C  0.42676903  0.49023024  0.98719641     0.25200
C1753       C  0.44183000  0.48940451  0.98160549    -0.18600
C1754       C  0.44470844  0.48988082  0.96573500    -0.07600
C1755       C  0.42408085  0.49036234  0.00361241    -0.14000
C1756       C  0.42305056  0.49082729  0.01750081    -0.13700
C1757       C  0.42350894  0.49163857  0.03411078     0.25100
C1758       C  0.41646210  0.48030312  0.04310517    -0.19100
C1759       C  0.41832856  0.48030031  0.05916602    -0.07600
C1760       C  0.42780501  0.49137403  0.06652319    -0.03700
C1761       C  0.43361065  0.50348783  0.05730545    -0.09000
C1762       C  0.43172347  0.50345471  0.04129108    -0.16600
H1763       H  0.40760046  0.49229015  0.95313341     0.11500
H1764       H  0.40274389  0.49144816  0.98099089     0.10800
H1765       H  0.45141139  0.48836655  0.98954857     0.10700
H1766       H  0.45651222  0.48858259  0.96209965     0.11300
H1767       H  0.40971373  0.47130802  0.03768804     0.11300
H1768       H  0.41236529  0.47149482  0.06560238     0.11300
H1769       H  0.44036749  0.51260299  0.06248618     0.11400
H1770       H  0.43703797  0.51245169  0.03447205     0.10300
C1771       C  0.45247462  0.49350715  0.93300936    -0.03600
C1772       C  0.45993176  0.48267714  0.92342789    -0.09300
C1773       C  0.47590695  0.48327172  0.92109163    -0.17000
C1774       C  0.48478320  0.49493596  0.92780080     0.25200
C1775       C  0.47745541  0.50640746  0.93631083    -0.18600
C1776       C  0.46150773  0.50585555  0.93865473    -0.07600
C1777       C  0.50141091  0.49491822  0.92637305    -0.14000
C1778       C  0.51535931  0.49480023  0.92609659    -0.13700
C1779       C  0.53201225  0.49459094  0.92707672     0.25100
C1780       C  0.53970503  0.50545021  0.93614988    -0.19100
C1781       C  0.55561262  0.50445065  0.93841321    -0.07600
C1782       C  0.56421082  0.49216976  0.93218575    -0.03700
C1783       C  0.55648365  0.48213765  0.92188805    -0.09000
C1784       C  0.54053133  0.48321715  0.91957502    -0.16600
H1785       H  0.45362242  0.47361913  0.91770756     0.11500
H1786       H  0.48135901  0.47450345  0.91415292     0.10800
H1787       H  0.48410710  0.51565542  0.94140368     0.10700
H1788       H  0.45624559  0.51475673  0.94555915     0.11300
H1789       H  0.53334543  0.51448911  0.94183723     0.11300
H1790       H  0.56112723  0.51280807  0.94586086     0.11300
H1791       H  0.56255554  0.47329054  0.91569102     0.11400
H1792       H  0.53480078  0.47497704  0.91214794     0.10300
C1793       C  0.30956350  0.34649768  0.88954613    -0.03600
C1794       C  0.29611969  0.34272742  0.89779691    -0.09300
C1795       C  0.28162242  0.34595487  0.89167751    -0.17000
C1796       C  0.28032377  0.35305271  0.87725964     0.25200
C1797       C  0.29364238  0.35664163  0.86881886    -0.18600
C1798       C  0.30820872  0.35332472  0.87490392    -0.07600
C1799       C  0.26531167  0.35724267  0.87162843    -0.14000
C1800       C  0.25247704  0.36111665  0.86806084    -0.13700
C1801       C  0.23708658  0.36630654  0.86482597     0.25100
C1802       C  0.23457497  0.38168029  0.86106853    -0.19100
C1803       C  0.21961643  0.38696489  0.85861645    -0.07600
C1804       C  0.20694155  0.37692273  0.85985220    -0.03700
C1805       C  0.20953765  0.36146561  0.86350529    -0.09000
C1806       C  0.22453972  0.35620303  0.86602449    -0.16600
H1807       H  0.29680847  0.33739050  0.90906746     0.11500
H1808       H  0.27141691  0.34313671  0.89832111     0.10800
H1809       H  0.29277763  0.36219199  0.85766342     0.10700
H1810       H  0.31838356  0.35635757  0.86832343     0.11300
H1811       H  0.24416875  0.38962537  0.86018918     0.11300
H1812       H  0.21796564  0.39894070  0.85582023     0.11300
H1813       H  0.19997936  0.35351746  0.86460161     0.11400
H1814       H  0.22633950  0.34429957  0.86904301     0.10300
C1815       C  0.37356886  0.38085392  0.91088663    -0.03600
C1816       C  0.36639126  0.39302270  0.91873503    -0.09300
C1817       C  0.37401201  0.40707673  0.92079122    -0.17000
C1818       C  0.38894039  0.40925822  0.91503429     0.25200
C1819       C  0.39613862  0.39723112  0.90710817    -0.18600
C1820       C  0.38852071  0.38313384  0.90504403    -0.07600
C1821       C  0.39689711  0.42372760  0.91749057    -0.14000
C1822       C  0.40351895  0.43576871  0.91990808    -0.13700
C1823       C  0.41160206  0.44996725  0.92335353     0.25100
C1824       C  0.42493344  0.44973533  0.93238509    -0.19100
C1825       C  0.43247848  0.46340938  0.93628446    -0.07600
C1826       C  0.42710594  0.47780746  0.93106218    -0.03700
C1827       C  0.41350646  0.47781819  0.92202890    -0.09000
C1828       C  0.40595071  0.46406285  0.91816694    -0.16600
H1829       H  0.35492568  0.39162205  0.92346737     0.11500
H1830       H  0.36828754  0.41621111  0.92698591     0.10800
H1831       H  0.40769713  0.39870380  0.90262325     0.10700
H1832       H  0.39438960  0.37396885  0.89905075     0.11300
H1833       H  0.42938937  0.43896869  0.93666112     0.11300
H1834       H  0.44253258  0.46280076  0.94365437     0.11300
H1835       H  0.40819789  0.48836280  0.91836801     0.11400
H1836       H  0.39548146  0.46446627  0.91138003     0.10300
C1837       C  0.20586687  0.37705988  0.16016160    -0.03600
C1838       C  0.21857386  0.38577331  0.16523464    -0.09300
C1839       C  0.23348273  0.37989488  0.16420819    -0.17000
C1840       C  0.23589174  0.36526096  0.15807551     0.25200
C1841       C  0.22327843  0.35640706  0.15324100    -0.18600
C1842       C  0.20833731  0.36224905  0.15431495    -0.07600
C1843       C  0.25134597  0.35987870  0.15559636    -0.14000
C1844       C  0.26424905  0.35614176  0.15214151    -0.13700
C1845       C  0.27933443  0.35257715  0.14627927     0.25100
C1846       C  0.28116251  0.34952919  0.13051991    -0.19100
C1847       C  0.29580798  0.34695806  0.12441662    -0.07600
C1848       C  0.30885837  0.34732685  0.13402055    -0.03700
C1849       C  0.30694694  0.35018704  0.14989235    -0.09000
C1850       C  0.29224806  0.35285324  0.15598063    -0.16600
H1851       H  0.21700656  0.39720571  0.16982944     0.11500
H1852       H  0.24315454  0.38689287  0.16789017     0.10800
H1853       H  0.22501692  0.34511609  0.14835211     0.10700
H1854       H  0.19876151  0.35530921  0.15030984     0.11300
H1855       H  0.27126830  0.34933236  0.12289452     0.11300
H1856       H  0.29692125  0.34471275  0.11216174     0.11300
H1857       H  0.31681195  0.35053940  0.15753647     0.11400
H1858       H  0.29097958  0.35528531  0.16818675     0.10300
C1859       C  0.35763740  0.33433255  0.06771093    -0.03600
C1860       C  0.37248698  0.33362834  0.06127988    -0.09300
C1861       C  0.37441336  0.33228487  0.04529645    -0.17000
C1862       C  0.36152420  0.33159062  0.03562034     0.25200
C1863       C  0.34671349  0.33220003  0.04195434    -0.18600
C1864       C  0.34476544  0.33355899  0.05790710    -0.07600
C1865       C  0.36333278  0.33047063  0.01916302    -0.14000
C1866       C  0.36354120  0.32984899  0.00526943    -0.13700
C1867       C  0.36201883  0.32964121  0.98874889     0.25100
C1868       C  0.34734893  0.32822295  0.98222310    -0.19100
C1869       C  0.34548621  0.32899158  0.96623789    -0.07600
C1870       C  0.35830542  0.33114695  0.95657337    -0.03700
C1871       C  0.37307660  0.33217564  0.96315785    -0.09000
C1872       C  0.37491353  0.33148008  0.97920358    -0.16600
H1873       H  0.38259286  0.33421601  0.06858862     0.11500
H1874       H  0.38592331  0.33185470  0.04049370     0.10800
H1875       H  0.33666477  0.33169524  0.03454701     0.10700
H1876       H  0.33320284  0.33406934  0.06256023     0.11300
H1877       H  0.33730111  0.32680802  0.98952108     0.11300
H1878       H  0.33398932  0.32813998  0.96145671     0.11300
H1879       H  0.38312849  0.33390027  0.95594571     0.11400
H1880       H  0.38631502  0.33263427  0.98416019     0.10300
C1881       C  0.37637243  0.38035477  0.11870587    -0.03600
C1882       C  0.36853762  0.39436388  0.11743121    -0.09300
C1883       C  0.37668347  0.40820647  0.11637568    -0.17000
C1884       C  0.39280216  0.40831442  0.11651403     0.25200
C1885       C  0.40072579  0.39443775  0.11813445    -0.18600
C1886       C  0.39256691  0.38054083  0.11928087    -0.07600
C1887       C  0.40104136  0.42256563  0.11398127    -0.14000
C1888       C  0.40725485  0.43458223  0.11067769    -0.13700
C1889       C  0.41411042  0.44873605  0.10521150     0.25100
C1890       C  0.42491528  0.44836086  0.09326513    -0.19100
C1891       C  0.43064625  0.46199124  0.08697171    -0.07600
C1892       C  0.42538825  0.47645290  0.09211041    -0.03700
C1893       C  0.41525276  0.47661714  0.10491524    -0.09000
C1894       C  0.40953672  0.46290393  0.11122479    -0.16600
H1895       H  0.35608114  0.39460133  0.11693138     0.11500
H1896       H  0.37038912  0.41881357  0.11507179     0.10800
H1897       H  0.41319777  0.39431954  0.11816302     0.10700
H1898       H  0.39891440  0.36992805  0.12013509     0.11300
H1899       H  0.42872488  0.43750339  0.08858884     0.11300
H1900       H  0.43887103  0.46127298  0.07759698     0.11300
H1901       H  0.41166135  0.48721134  0.11021345     0.11400
H1902       H  0.40140829  0.46337145  0.12070569     0.10300
C1903       C  0.31342971  0.64002241  0.88530582    -0.03600
C1904       C  0.30971245  0.64189061  0.86960746    -0.09300
C1905       C  0.29445075  0.64007694  0.86455648    -0.17000
C1906       C  0.28278711  0.63631384  0.87512962     0.25200
C1907       C  0.28644940  0.63447746  0.89075303    -0.18600
C1908       C  0.30161571  0.63636719  0.89581482    -0.07600
C1909       C  0.26710836  0.63388197  0.87009463    -0.14000
C1910       C  0.25386652  0.63101052  0.86684948    -0.13700
C1911       C  0.23817164  0.62636586  0.86380235     0.25100
C1912       C  0.22582600  0.63596193  0.86759778    -0.19100
C1913       C  0.21060075  0.63092865  0.86544236    -0.07600
C1914       C  0.20759136  0.61619884  0.85955392    -0.03700
C1915       C  0.22006556  0.60674487  0.85560895    -0.09000
C1916       C  0.23521332  0.61179964  0.85770080    -0.16600
H1917       H  0.31857649  0.64475011  0.86127757     0.11500
H1918       H  0.29177497  0.64150019  0.85242115     0.10800
H1919       H  0.27757476  0.63148797  0.89903914     0.10700
H1920       H  0.30412412  0.63479690  0.90796497     0.11300
H1921       H  0.22796192  0.64723413  0.87241690     0.11300
H1922       H  0.20121668  0.63841950  0.86861571     0.11300
H1923       H  0.21812027  0.59534740  0.85102108     0.11400
H1924       H  0.24462949  0.60423711  0.85477293     0.10300
C1925       C  0.38235580  0.60362708  0.89683967    -0.03600
C1926       C  0.39831676  0.60341472  0.89961622    -0.09300
C1927       C  0.40590445  0.58950691  0.90235982    -0.17000
C1928       C  0.39767705  0.57562071  0.90222598     0.25200
C1929       C  0.38192141  0.57572660  0.89877414    -0.18600
C1930       C  0.37431968  0.58959480  0.89612180    -0.07600
C1931       C  0.40506001  0.56139596  0.90658142    -0.14000
C1932       C  0.41060057  0.54947957  0.91107240    -0.13700
C1933       C  0.41666294  0.53539900  0.91749161     0.25100
C1934       C  0.42259767  0.52389133  0.90794354    -0.19100
C1935       C  0.42832686  0.51028226  0.91435414    -0.07600
C1936       C  0.42798668  0.50766294  0.93047977    -0.03700
C1937       C  0.42248950  0.51976152  0.93991400    -0.09000
C1938       C  0.41672573  0.53326631  0.93348128    -0.16600
H1939       H  0.40478262  0.61403405  0.90040808     0.11500
H1940       H  0.41808304  0.58963799  0.90506299     0.10800
H1941       H  0.37538388  0.56511551  0.89863397     0.10700
H1942       H  0.36201877  0.58937685  0.89407121     0.11300
H1943       H  0.42284863  0.52544018  0.89553157     0.11300
H1944       H  0.43299489  0.50166189  0.90669386     0.11300
H1945       H  0.42293227  0.51923005  0.95235799     0.11400
H1946       H  0.41248023  0.54218053  0.94106434     0.10300
C1947       C  0.20967981  0.61907572  0.15023108    -0.03600
C1948       C  0.22116994  0.60966768  0.14388798    -0.09300
C1949       C  0.23602435  0.61537650  0.14129452    -0.17000
C1950       C  0.23972357  0.63054866  0.14509614     0.25200
C1951       C  0.22839469  0.63999418  0.15155956    -0.18600
C1952       C  0.21343947  0.63430792  0.15407871    -0.07600
C1953       C  0.25510843  0.63627796  0.14211303    -0.14000
C1954       C  0.26816400  0.64005286  0.13894391    -0.13700
C1955       C  0.28383505  0.64341553  0.13432774     0.25100
C1956       C  0.28696853  0.64807439  0.11916382    -0.19100
C1957       C  0.30219449  0.65000944  0.11419794    -0.07600
C1958       C  0.31454509  0.64729049  0.12432862    -0.03700
C1959       C  0.31132755  0.64309489  0.13968208    -0.09000
C1960       C  0.29606659  0.64112915  0.14462859    -0.16600
H1961       H  0.21863926  0.59789201  0.14079449     0.11500
H1962       H  0.24463285  0.60794039  0.13626940     0.10800
H1963       H  0.23109412  0.65175223  0.15458750     0.10700
H1964       H  0.20485370  0.64177565  0.15907333     0.11300
H1965       H  0.27764607  0.64986734  0.11105893     0.11300
H1966       H  0.30430531  0.65331911  0.10232508     0.11300
H1967       H  0.32060169  0.64095487  0.14774479     0.11400
H1968       H  0.29382575  0.63749022  0.15638304     0.10300
C1969       C  0.36509734  0.64851086  0.06046759    -0.03600
C1970       C  0.35231392  0.64601239  0.05084670    -0.09300
C1971       C  0.35398371  0.64630676  0.03482950    -0.17000
C1972       C  0.36843814  0.64904364  0.02823464     0.25200
C1973       C  0.38129120  0.65141788  0.03771071    -0.18600
C1974       C  0.37963253  0.65116837  0.05378525    -0.07600
C1975       C  0.36987266  0.64927355  0.01172234    -0.14000
C1976       C  0.36967670  0.64896085  0.99782842    -0.13700
C1977       C  0.36798264  0.64792632  0.98137051     0.25100
C1978       C  0.37947004  0.65358443  0.97154596    -0.19100
C1979       C  0.37766230  0.65249195  0.95553586    -0.07600
C1980       C  0.36432444  0.64574804  0.94923886    -0.03700
C1981       C  0.35285881  0.64009790  0.95919670    -0.09000
C1982       C  0.35469261  0.64118751  0.97517611    -0.16600
H1983       H  0.34099653  0.64394363  0.05569800     0.11500
H1984       H  0.34398082  0.64442347  0.02757495     0.10800
H1985       H  0.39253994  0.65349011  0.03269192     0.10700
H1986       H  0.38966995  0.65308440  0.06096830     0.11300
H1987       H  0.38978351  0.65884306  0.97624759     0.11300
H1988       H  0.38663709  0.65698687  0.94809471     0.11300
H1989       H  0.34246194  0.63488792  0.95463814     0.11400
H1990       H  0.34573148  0.63679374  0.98270734     0.10300
C1991       C  0.42445760  0.50622227  0.09037450    -0.03600
C1992       C  0.40834708  0.50838243  0.08939610    -0.09300
C1993       C  0.40157482  0.52232528  0.09358857    -0.17000
C1994       C  0.41074395  0.53462655  0.09851836     0.25200
C1995       C  0.42669698  0.53286338  0.09925164    -0.18600
C1996       C  0.43349627  0.51896332  0.09512139    -0.07600
C1997       C  0.40397700  0.54929684  0.10218959    -0.14000
C1998       C  0.39879642  0.56184657  0.10497092    -0.13700
C1999       C  0.39270326  0.57697412  0.10789169     0.25100
C2000       C  0.40192684  0.59003412  0.10565785    -0.19100
C2001       C  0.39577777  0.60472080  0.10779255    -0.07600
C2002       C  0.38027351  0.60652594  0.11209130    -0.03700
C2003       C  0.37119359  0.59335139  0.11459088    -0.09000
C2004       C  0.37737449  0.57870465  0.11255128    -0.16600
H2005       H  0.40099846  0.49922992  0.08517197     0.11500
H2006       H  0.38920437  0.52358530  0.09270759     0.10800
H2007       H  0.43397611  0.54240087  0.10268422     0.10700
H2008       H  0.44591462  0.51867138  0.09506510     0.11300
H2009       H  0.41378988  0.58887563  0.10198581     0.11300
H2010       H  0.40297307  0.61464779  0.10554195     0.11300
H2011       H  0.35918703  0.59437805  0.11779030     0.11400
H2012       H  0.37009584  0.56873272  0.11431134     0.10300
C2013       C  0.45147537  0.99205217  0.93035723    -0.03600
C2014       C  0.45888463  0.97870089  0.92482761    -0.09300
C2015       C  0.47497273  0.97770947  0.92443776    -0.17000
C2016       C  0.48410608  0.98981911  0.92983749     0.25200
C2017       C  0.47704772  0.00289024  0.93582931    -0.18600
C2018       C  0.46098842  0.00390870  0.93628486    -0.07600
C2019       C  0.50070489  0.98873419  0.92954718    -0.14000
C2020       C  0.51461501  0.98816225  0.92947891    -0.13700
C2021       C  0.53125452  0.98806025  0.92969069     0.25100
C2022       C  0.53956437  0.99950404  0.92198919    -0.19100
C2023       C  0.55565031  0.00004534  0.92293195    -0.07600
C2024       C  0.56382110  0.98938788  0.93208465    -0.03700
C2025       C  0.55526403  0.97719836  0.93872830    -0.09000
C2026       C  0.53918260  0.97670672  0.93778007    -0.16600
H2027       H  0.45246314  0.96870571  0.92120792     0.11500
H2028       H  0.48029284  0.96736137  0.92010158     0.10800
H2029       H  0.48395893  0.01228071  0.94027353     0.10700
H2030       H  0.45588506  0.01409660  0.94121559     0.11300
H2031       H  0.53358886  0.00812659  0.91531571     0.11300
H2032       H  0.56148347  0.00888553  0.91642580     0.11300
H2033       H  0.56106668  0.96840534  0.94531781     0.11400
H2034       H  0.53293040  0.96760215  0.94358216     0.10300
C2035       C  0.62337796  0.79304076  0.86648765    -0.03600
C2036       C  0.61742134  0.78031252  0.85843375    -0.09300
C2037       C  0.62167043  0.76542358  0.86250390    -0.17000
C2038       C  0.63192246  0.76296355  0.87470339     0.25200
C2039       C  0.63791502  0.77556467  0.88284237    -0.18600
C2040       C  0.63368394  0.79053041  0.87875093    -0.07600
C2041       C  0.63622248  0.74748101  0.87869824    -0.14000
C2042       C  0.63943809  0.73430389  0.88151435    -0.13700
C2043       C  0.64311987  0.71849128  0.88476823     0.25100
C2044       C  0.65094367  0.71472054  0.89835676    -0.19100
C2045       C  0.65451054  0.69944511  0.90158919    -0.07600
C2046       C  0.65023850  0.68764521  0.89131606    -0.03700
C2047       C  0.64234858  0.69147893  0.87769507    -0.09000
C2048       C  0.63885496  0.70682556  0.87442820    -0.16600
H2049       H  0.60945257  0.78185760  0.84894685     0.11500
H2050       H  0.61694312  0.75580953  0.85611223     0.10800
H2051       H  0.64584861  0.77382776  0.89232890     0.10700
H2052       H  0.63840689  0.80010513  0.88518910     0.11300
H2053       H  0.65428868  0.72359135  0.90647263     0.11300
H2054       H  0.66055050  0.69685793  0.91220976     0.11300
H2055       H  0.63895770  0.68264634  0.86956851     0.11400
H2056       H  0.63280535  0.70958820  0.86385535     0.10300
C2057       C  0.61150493  0.87918597  0.87509540    -0.03600
C2058       C  0.60670497  0.89217870  0.86679817    -0.09300
C2059       C  0.60482253  0.90628742  0.87422935    -0.17000
C2060       C  0.60771571  0.90768010  0.89007486     0.25200
C2061       C  0.61286038  0.89488872  0.89837634    -0.18600
C2062       C  0.61475913  0.88072399  0.89093935    -0.07600
C2063       C  0.60474135  0.92205244  0.89784167    -0.14000
C2064       C  0.60156215  0.93399906  0.90416648    -0.13700
C2065       C  0.59713664  0.94806852  0.91178758     0.25100
C2066       C  0.59890970  0.94962037  0.92776427    -0.19100
C2067       C  0.59411647  0.96297523  0.93530900    -0.07600
C2068       C  0.58774489  0.97538096  0.92696691    -0.03700
C2069       C  0.58561312  0.97333298  0.91087913    -0.09000
C2070       C  0.59040466  0.95995952  0.90338254    -0.16600
H2071       H  0.60403457  0.89135839  0.85460421     0.11500
H2072       H  0.60080693  0.91604605  0.86765944     0.10800
H2073       H  0.61510712  0.89578365  0.91065419     0.10700
H2074       H  0.61836843  0.87090728  0.89764611     0.11300
H2075       H  0.60373336  0.94034071  0.93448643     0.11300
H2076       H  0.59501950  0.96313727  0.94773553     0.11300
H2077       H  0.58021538  0.98222640  0.90407966     0.11400
H2078       H  0.58867993  0.95883475  0.89103787     0.10300
C2079       C  0.38859495  0.79648898  0.86525844    -0.03600
C2080       C  0.37877184  0.79324232  0.87777204    -0.09300
C2081       C  0.37503421  0.77799967  0.88152083    -0.17000
C2082       C  0.38103254  0.76585936  0.87277700     0.25200
C2083       C  0.39054895  0.76907826  0.86014136    -0.18600
C2084       C  0.39430294  0.78422870  0.85641464    -0.07600
C2085       C  0.37783155  0.75006671  0.87681762    -0.14000
C2086       C  0.37573180  0.73665998  0.87978494    -0.13700
C2087       C  0.37324575  0.72062512  0.88332250     0.25100
C2088       C  0.37870567  0.70913220  0.87340924    -0.19100
C2089       C  0.37594236  0.69360827  0.87675844    -0.07600
C2090       C  0.36765099  0.68941205  0.89006518    -0.03700
C2091       C  0.36241356  0.70103232  0.90003281    -0.09000
C2092       C  0.36518812  0.71647992  0.89668690    -0.16600
H2093       H  0.37419498  0.80244139  0.88477243     0.11500
H2094       H  0.36762556  0.77568379  0.89132369     0.10800
H2095       H  0.39524078  0.75984353  0.85325093     0.10700
H2096       H  0.40184524  0.78633284  0.84667032     0.11300
H2097       H  0.38501495  0.71217084  0.86304754     0.11300
H2098       H  0.38017906  0.68492348  0.86892051     0.11300
H2099       H  0.35607853  0.69818946  0.91043068     0.11400
H2100       H  0.36095155  0.72520286  0.90449493     0.10300
C2101       C  0.45049116  0.83626498  0.85962686    -0.03600
C2102       C  0.46002292  0.83783186  0.84659022    -0.09300
C2103       C  0.47597394  0.83667216  0.84799818    -0.17000
C2104       C  0.48263011  0.83392942  0.86243164     0.25200
C2105       C  0.47324272  0.83219765  0.87548354    -0.18600
C2106       C  0.45722171  0.83335388  0.87409417    -0.07600
C2107       C  0.49911464  0.83318515  0.86367352    -0.14000
C2108       C  0.51298123  0.83296882  0.86346225    -0.13700
C2109       C  0.52946524  0.83301055  0.86195644     0.25100
C2110       C  0.53886321  0.83262708  0.87508079    -0.19100
C2111       C  0.55489003  0.83278567  0.87349330    -0.07600
C2112       C  0.56165391  0.83333371  0.85874769    -0.03700
C2113       C  0.55212772  0.83369722  0.84563267    -0.09000
C2114       C  0.53612722  0.83354967  0.84724273    -0.16600
H2115       H  0.45515539  0.84004216  0.83529580     0.11500
H2116       H  0.48313307  0.83801843  0.83782775     0.10800
H2117       H  0.47829698  0.83005749  0.88671242     0.10700
H2118       H  0.45012481  0.83206527  0.88430382     0.11300
H2119       H  0.53381260  0.83225688  0.88652023     0.11300
H2120       H  0.56197951  0.83257137  0.88378116     0.11300
H2121       H  0.55703961  0.83420443  0.83414190     0.11400
H2122       H  0.52894765  0.83390356  0.83701282     0.10300
C2123       C  0.39903182  0.88357418  0.87474049    -0.03600
C2124       C  0.39290533  0.88581467  0.88962369    -0.09300
C2125       C  0.39385489  0.90027887  0.89676771    -0.17000
C2126       C  0.40093949  0.91264445  0.88912350     0.25200
C2127       C  0.40667294  0.91052307  0.87417888    -0.18600
C2128       C  0.40570163  0.89617179  0.86704614    -0.07600
C2129       C  0.40322215  0.92730091  0.89670804    -0.14000
C2130       C  0.40645692  0.93954910  0.90250866    -0.13700
C2131       C  0.41166366  0.95382550  0.90937179     0.25100
C2132       C  0.42088119  0.96402777  0.90092381    -0.19100
C2133       C  0.42724267  0.97702767  0.90805816    -0.07600
C2134       C  0.42499563  0.97989074  0.92398728    -0.03700
C2135       C  0.41447203  0.97022453  0.93190524    -0.09000
C2136       C  0.40814840  0.95722859  0.92475262    -0.16600
H2137       H  0.38771655  0.87634103  0.89584368     0.11500
H2138       H  0.38937855  0.90172303  0.90835474     0.10800
H2139       H  0.41222533  0.91991408  0.86812869     0.10700
H2140       H  0.41056858  0.89485246  0.85560633     0.11300
H2141       H  0.42349537  0.96173518  0.88890823     0.11300
H2142       H  0.43462522  0.98450451  0.90131627     0.11300
H2143       H  0.41107597  0.97245550  0.94368546     0.11400
H2144       H  0.40068351  0.94968571  0.93133800     0.10300
C2145       C  0.65301278  0.29168741  0.89825687    -0.03600
C2146       C  0.64989543  0.28752837  0.88288126    -0.09300
C2147       C  0.64740263  0.27210157  0.87893732    -0.17000
C2148       C  0.64787764  0.26066208  0.89031801     0.25200
C2149       C  0.65105615  0.26475305  0.90563352    -0.18600
C2150       C  0.65367926  0.28011165  0.90956060    -0.07600
C2151       C  0.64463183  0.24482341  0.88642352    -0.14000
C2152       C  0.64127577  0.23169667  0.88327176    -0.13700
C2153       C  0.63628559  0.21633349  0.87926355     0.25100
C2154       C  0.64655168  0.20397718  0.87969721    -0.19100
C2155       C  0.64159635  0.18920720  0.87545824    -0.07600
C2156       C  0.62630547  0.18662920  0.87070501    -0.03700
C2157       C  0.61607531  0.19907652  0.87045460    -0.09000
C2158       C  0.62102192  0.21377025  0.87471161    -0.16600
H2159       H  0.64946662  0.29617600  0.87392583     0.11500
H2160       H  0.64497793  0.26911358  0.86703265     0.10800
H2161       H  0.65141437  0.25607802  0.91457537     0.10700
H2162       H  0.65606262  0.28295728  0.92150727     0.11300
H2163       H  0.65839491  0.20576858  0.88321573     0.11300
H2164       H  0.64973112  0.17985254  0.87576702     0.11300
H2165       H  0.60422191  0.19747356  0.86689139     0.11400
H2166       H  0.61293544  0.22317449  0.87434834     0.10300
C2167       C  0.61437728  0.10188901  0.87902418    -0.03600
C2168       C  0.61140441  0.08833949  0.87069874    -0.09300
C2169       C  0.61006006  0.07426195  0.87831702    -0.17000
C2170       C  0.61169429  0.07345283  0.89438005     0.25200
C2171       C  0.61505931  0.08683225  0.90274712    -0.18600
C2172       C  0.61640032  0.10097377  0.89512259    -0.07600
C2173       C  0.60901113  0.05904618  0.90222801    -0.14000
C2174       C  0.60573427  0.04700312  0.90836878    -0.13700
C2175       C  0.60063761  0.03284149  0.91545634     0.25100
C2176       C  0.58926422  0.03312715  0.92686910    -0.19100
C2177       C  0.58363530  0.01945645  0.93319056    -0.07600
C2178       C  0.58884172  0.00503132  0.92791335    -0.03700
C2179       C  0.60106630  0.00502247  0.91707106    -0.09000
C2180       C  0.60670160  0.01875855  0.91077278    -0.16600
H2181       H  0.60970853  0.08866859  0.85830904     0.11500
H2182       H  0.60739222  0.06404574  0.87169604     0.10800
H2183       H  0.61629741  0.08639390  0.91519131     0.10700
H2184       H  0.61861412  0.11122064  0.90184548     0.11300
H2185       H  0.58458098  0.04393972  0.93077559     0.11300
H2186       H  0.57472266  0.02010065  0.94191203     0.11300
H2187       H  0.60647109  0.99452894  0.91338481     0.11400
H2188       H  0.61576626  0.01837256  0.90218315     0.10300
C2189       C  0.36234677  0.29508520  0.89208586    -0.03600
C2190       C  0.37536537  0.29235006  0.88284145    -0.09300
C2191       C  0.37897031  0.27738168  0.87811977    -0.17000
C2192       C  0.36958091  0.26497998  0.88251938     0.25200
C2193       C  0.35647505  0.26769711  0.89149611    -0.18600
C2194       C  0.35289302  0.28258877  0.89624767    -0.07600
C2195       C  0.37345868  0.24943105  0.87817475    -0.14000
C2196       C  0.37658859  0.23630508  0.87491948    -0.13700
C2197       C  0.38069206  0.22070030  0.87101813     0.25100
C2198       C  0.37346837  0.20820463  0.87829523    -0.19100
C2199       C  0.37772234  0.19312701  0.87458876    -0.07600
C2200       C  0.38934878  0.19038337  0.86363562    -0.03700
C2201       C  0.39646798  0.20299292  0.85637001    -0.09000
C2202       C  0.39214427  0.21799141  0.85999368    -0.16600
H2203       H  0.38287024  0.30172437  0.87948375     0.11500
H2204       H  0.38915802  0.27546814  0.87117594     0.10800
H2205       H  0.34908918  0.25826476  0.89498031     0.10700
H2206       H  0.34276639  0.28429969  0.90333056     0.11300
H2207       H  0.36460469  0.21011362  0.88687810     0.11300
H2208       H  0.37208529  0.18365231  0.88040702     0.11300
H2209       H  0.40541954  0.20126379  0.84784314     0.11400
H2210       H  0.39782352  0.22749464  0.85424793     0.10300
C2211       C  0.45182611  0.14694979  0.85721571    -0.03600
C2212       C  0.46140769  0.14680206  0.84414122    -0.09300
C2213       C  0.47737731  0.14623706  0.84584160    -0.17000
C2214       C  0.48392534  0.14576878  0.86060074     0.25200
C2215       C  0.47446993  0.14595338  0.87368648    -0.18600
C2216       C  0.45848075  0.14655556  0.87200887    -0.07600
C2217       C  0.50035660  0.14502811  0.86218404    -0.14000
C2218       C  0.51419395  0.14443412  0.86251005    -0.13700
C2219       C  0.53069163  0.14389877  0.86165310     0.25100
C2220       C  0.53959779  0.14421206  0.87512088    -0.19100
C2221       C  0.55566701  0.14405635  0.87411844    -0.07600
C2222       C  0.56295537  0.14360624  0.85962204    -0.03700
C2223       C  0.55390785  0.14313190  0.84617086    -0.09000
C2224       C  0.53786641  0.14328616  0.84719758    -0.16600
H2225       H  0.45656178  0.14707789  0.83261763     0.11500
H2226       H  0.48461952  0.14610418  0.83564709     0.10800
H2227       H  0.47944395  0.14558023  0.88515652     0.10700
H2228       H  0.45133016  0.14659307  0.88226008     0.11300
H2229       H  0.53413634  0.14466944  0.88636436     0.11300
H2230       H  0.56238150  0.14437589  0.88465575     0.11300
H2231       H  0.55922765  0.14273338  0.83486200     0.11400
H2232       H  0.53105637  0.14302459  0.83671063     0.10300
C2233       C  0.42751765  0.00815930  0.92362358    -0.03600
C2234       C  0.43684108  0.01758750  0.91409340    -0.09300
C2235       C  0.43106764  0.03101939  0.90752059    -0.17000
C2236       C  0.41573557  0.03522437  0.90980986     0.25200
C2237       C  0.40600448  0.02553344  0.91828751    -0.18600
C2238       C  0.41176438  0.01205074  0.92490653    -0.07600
C2239       C  0.41022482  0.04950551  0.90339507    -0.14000
C2240       C  0.40686364  0.06170021  0.89767063    -0.13700
C2241       C  0.40410778  0.07628155  0.89020476     0.25100
C2242       C  0.40340403  0.08985480  0.89886378    -0.19100
C2243       C  0.40181926  0.10405701  0.89142995    -0.07600
C2244       C  0.40094371  0.10486731  0.87521690    -0.03700
C2245       C  0.40141685  0.09116656  0.86665363    -0.09000
C2246       C  0.40297783  0.07701382  0.87408646    -0.16600
H2247       H  0.44862273  0.01470681  0.91146039     0.11500
H2248       H  0.43863640  0.03816954  0.90061419     0.10800
H2249       H  0.39400664  0.02845241  0.91991430     0.10700
H2250       H  0.40401340  0.00482984  0.93151513     0.11300
H2251       H  0.40438720  0.08949396  0.91133397     0.11300
H2252       H  0.40167381  0.11441389  0.89832485     0.11300
H2253       H  0.40091999  0.09140803  0.85415561     0.11400
H2254       H  0.40361791  0.06665234  0.86721870     0.10300
C2255       C  0.58534853  0.99101391  0.95237885    -0.03600
C2256       C  0.60081720  0.99026561  0.95749676    -0.09300
C2257       C  0.60446566  0.99069136  0.97329897    -0.17000
C2258       C  0.59279521  0.99252998  0.98429403     0.25200
C2259       C  0.57762313  0.99440842  0.97938193    -0.18600
C2260       C  0.57395097  0.99389654  0.96370793    -0.07600
C2261       C  0.59595740  0.99262571  0.00068038    -0.14000
C2262       C  0.59594133  0.99284233  0.01464803    -0.13700
C2263       C  0.59291216  0.99336440  0.03105436     0.25100
C2264       C  0.57770658  0.99221939  0.03619162    -0.19100
C2265       C  0.57424506  0.99331969  0.05190113    -0.07600
C2266       C  0.58592590  0.99606660  0.06298964    -0.03700
C2267       C  0.60134774  0.99616571  0.05765479    -0.09000
C2268       C  0.60478213  0.99510464  0.04185065    -0.16600
H2269       H  0.61004791  0.98891747  0.94920238     0.11500
H2270       H  0.61634393  0.98955210  0.97691042     0.10800
H2271       H  0.56853299  0.99633501  0.98773146     0.10700
H2272       H  0.56211314  0.99609690  0.96067757     0.11300
H2273       H  0.56843229  0.99043354  0.02799668     0.11300
H2274       H  0.56235537  0.99167483  0.05515341     0.11300
H2275       H  0.61073935  0.99746107  0.06578911     0.11400
H2276       H  0.61666053  0.99572141  0.03807595     0.10300
C2277       C  0.43175077  0.99461399  0.06210799    -0.03600
C2278       C  0.42212818  0.00523825  0.05447800    -0.09300
C2279       C  0.42041957  0.00487313  0.03838342    -0.17000
C2280       C  0.42777329  0.99359700  0.02962131     0.25200
C2281       C  0.43620043  0.98220995  0.03710826    -0.18600
C2282       C  0.43797637  0.98257193  0.05314838    -0.07600
C2283       C  0.42713340  0.99392383  0.01295013    -0.14000
C2284       C  0.42741722  0.99410819  0.99898848    -0.13700
C2285       C  0.42847166  0.99405311  0.98233288     0.25100
C2286       C  0.43395828  0.98110399  0.97465450    -0.19100
C2287       C  0.43539562  0.98110603  0.95857479    -0.07600
C2288       C  0.43098490  0.99392454  0.94961361    -0.03700
C2289       C  0.42593038  0.00710555  0.95767758    -0.09000
C2290       C  0.42457006  0.00707666  0.97380836    -0.16600
H2291       H  0.41597507  0.01398423  0.06073163     0.11500
H2292       H  0.41351046  0.01353165  0.03275499     0.10800
H2293       H  0.44174315  0.97324167  0.03051075     0.10700
H2294       H  0.44496065  0.97384189  0.05855221     0.11300
H2295       H  0.43729978  0.97102360  0.98111348     0.11300
H2296       H  0.43994990  0.97097630  0.95301328     0.11300
H2297       H  0.42346748  0.01770576  0.95178206     0.11400
H2298       H  0.42069498  0.01733696  0.97965670     0.10300
C2299       C  0.45351814  0.99666019  0.08198780    -0.03600
C2300       C  0.46377544  0.00037754  0.06979763    -0.09300
C2301       C  0.47961035  0.00158697  0.07231867    -0.17000
C2302       C  0.48569883  0.99948830  0.08708126     0.25200
C2303       C  0.47574819  0.99668391  0.09949184    -0.18600
C2304       C  0.45981727  0.99563394  0.09702995    -0.07600
C2305       C  0.50217602  0.00018812  0.08922832    -0.14000
C2306       C  0.51608555  0.00052700  0.08959511    -0.13700
C2307       C  0.53268270  0.00047687  0.08858586     0.25100
C2308       C  0.54118980  0.98930997  0.09632253    -0.19100
C2309       C  0.55713734  0.98838348  0.09423132    -0.07600
C2310       C  0.56494101  0.99839683  0.08395230    -0.03700
C2311       C  0.55626884  0.01035683  0.07724719    -0.09000
C2312       C  0.54031660  0.01118877  0.07928780    -0.16600
H2313       H  0.45973313  0.00273400  0.05824933     0.11500
H2314       H  0.48713989  0.00420628  0.06267790     0.10800
H2315       H  0.48028230  0.99530205  0.11106120     0.10700
H2316       H  0.45235288  0.99363414  0.10685523     0.11300
H2317       H  0.53546746  0.98117140  0.10386545     0.11300
H2318       H  0.56317618  0.97980159  0.10081459     0.11300
H2319       H  0.56184129  0.01873049  0.06986437     0.11400
H2320       H  0.53390618  0.02004547  0.07338294     0.10300
C2321       C  0.38954190  0.79985291  0.14827991    -0.03600
C2322       C  0.37621973  0.79606549  0.13984518    -0.09300
C2323       C  0.37249063  0.78066347  0.13687387    -0.17000
C2324       C  0.38200402  0.76890112  0.14233657     0.25200
C2325       C  0.39521284  0.77262685  0.15080848    -0.18600
C2326       C  0.39895510  0.78794789  0.15375902    -0.07600
C2327       C  0.37855072  0.75301834  0.13900142    -0.14000
C2328       C  0.37636671  0.73965238  0.13596432    -0.13700
C2329       C  0.37417015  0.72382732  0.13150638     0.25100
C2330       C  0.37623740  0.71191260  0.14218227    -0.19100
C2331       C  0.37422349  0.69658548  0.13761482    -0.07600
C2332       C  0.37007602  0.69304371  0.12232037    -0.03700
C2333       C  0.36810938  0.70509046  0.11170616    -0.09000
C2334       C  0.37015827  0.72032638  0.11626035    -0.16600
H2335       H  0.36875552  0.80498209  0.13550849     0.11500
H2336       H  0.36224677  0.77793821  0.13026010     0.10800
H2337       H  0.40269156  0.76367627  0.15507389     0.10700
H2338       H  0.40927662  0.79047302  0.16032483     0.11300
H2339       H  0.37936690  0.71446646  0.15402381     0.11300
H2340       H  0.37569991  0.68755256  0.14604983     0.11300
H2341       H  0.36488776  0.70274544  0.09984794     0.11400
H2342       H  0.36857223  0.72939430  0.10787121     0.10300
C2343       C  0.39652908  0.88624844  0.13618234    -0.03600
C2344       C  0.39307214  0.88696593  0.12031914    -0.09300
C2345       C  0.39494690  0.90075322  0.11213695    -0.17000
C2346       C  0.40022995  0.91399195  0.11971982     0.25200
C2347       C  0.40302350  0.91347933  0.13563789    -0.18600
C2348       C  0.40118804  0.89975305  0.14380028    -0.07600
C2349       C  0.40396360  0.92778653  0.11116352    -0.14000
C2350       C  0.40844111  0.93932952  0.10477334    -0.13700
C2351       C  0.41518063  0.95299826  0.09802242     0.25100
C2352       C  0.43119516  0.95462525  0.09743896    -0.19100
C2353       C  0.43794267  0.96800974  0.09155739    -0.07600
C2354       C  0.42880671  0.98039980  0.08643006    -0.03700
C2355       C  0.41264870  0.97812871  0.08624261    -0.09000
C2356       C  0.40592161  0.96472984  0.09220598    -0.16600
H2357       H  0.38955415  0.87674789  0.11412166     0.11500
H2358       H  0.39276899  0.90095100  0.09981791     0.10800
H2359       H  0.40713842  0.92358614  0.14166997     0.10700
H2360       H  0.40398507  0.89958774  0.15599088     0.11300
H2361       H  0.43853554  0.94547717  0.10151659     0.11300
H2362       H  0.45034355  0.96830056  0.09078565     0.11300
H2363       H  0.40519642  0.98696347  0.08171204     0.11400
H2364       H  0.39349815  0.96356207  0.09231812     0.10300
C2365       C  0.64893806  0.69299958  0.12238456    -0.03600
C2366       C  0.65751161  0.70559184  0.11683698    -0.09300
C2367       C  0.65295077  0.72063508  0.12009805    -0.17000
C2368       C  0.63973746  0.72338372  0.12894219     0.25200
C2369       C  0.63128814  0.71089840  0.13474504    -0.18600
C2370       C  0.63586355  0.69581996  0.13152161    -0.07600
C2371       C  0.63484441  0.73898429  0.13192858    -0.14000
C2372       C  0.63096344  0.75208748  0.13441984    -0.13700
C2373       C  0.62655358  0.76775312  0.13780531     0.25100
C2374       C  0.61639484  0.77081238  0.14997432    -0.19100
C2375       C  0.61255208  0.78594428  0.15369496    -0.07600
C2376       C  0.61883994  0.79833756  0.14534061    -0.03700
C2377       C  0.62886776  0.79520367  0.13299312    -0.09000
C2378       C  0.63267799  0.78001767  0.12925144    -0.16600
H2379       H  0.66766456  0.70381742  0.10980887     0.11500
H2380       H  0.65965967  0.73013130  0.11557998     0.10800
H2381       H  0.62107122  0.71281238  0.14164585     0.10700
H2382       H  0.62903096  0.68637943  0.13595260     0.11300
H2383       H  0.61153075  0.76149638  0.15669198     0.11300
H2384       H  0.60472875  0.78794762  0.16321919     0.11300
H2385       H  0.63378683  0.80447817  0.12627144     0.11400
H2386       H  0.64051348  0.77785401  0.11977030     0.10300
C2387       C  0.55919756  0.83994194  0.14946032    -0.03600
C2388       C  0.55316092  0.84143116  0.13447906    -0.09300
C2389       C  0.53723398  0.84137250  0.13213599    -0.17000
C2390       C  0.52726031  0.83973535  0.14472823     0.25200
C2391       C  0.53321131  0.83782301  0.15961419    -0.18600
C2392       C  0.54909509  0.83794772  0.16198465    -0.07600
C2393       C  0.51092027  0.84082578  0.14265617    -0.14000
C2394       C  0.49715801  0.84226329  0.14244024    -0.13700
C2395       C  0.48085917  0.84410213  0.14425445     0.25100
C2396       C  0.47513761  0.84935789  0.15838202    -0.19100
C2397       C  0.45930083  0.85011704  0.16084119    -0.07600
C2398       C  0.44898963  0.84559933  0.14918163    -0.03700
C2399       C  0.45479296  0.84080719  0.13481161    -0.09000
C2400       C  0.47069627  0.84003843  0.13237291    -0.16600
H2401       H  0.56072792  0.84296692  0.12464917     0.11500
H2402       H  0.53270822  0.84288444  0.12057800     0.10800
H2403       H  0.52556373  0.83654393  0.16942949     0.10700
H2404       H  0.55346337  0.83668602  0.17363132     0.11300
H2405       H  0.48293045  0.85255945  0.16762860     0.11300
H2406       H  0.45513320  0.85393810  0.17198159     0.11300
H2407       H  0.44706436  0.83734120  0.12561906     0.11400
H2408       H  0.47504577  0.83599065  0.12138159     0.10300
C2409       C  0.61156403  0.88560791  0.13699255    -0.03600
C2410       C  0.60555891  0.89854651  0.14455705    -0.09300
C2411       C  0.60504514  0.91276735  0.13712081    -0.17000
C2412       C  0.61052497  0.91434738  0.12199518     0.25200
C2413       C  0.61696743  0.90163316  0.11451457    -0.18600
C2414       C  0.61752417  0.88735200  0.12197601    -0.07600
C2415       C  0.60862091  0.92878274  0.11399194    -0.14000
C2416       C  0.60578519  0.94082293  0.10767823    -0.13700
C2417       C  0.60099523  0.95495122  0.10039708     0.25100
C2418       C  0.58950418  0.95461875  0.08910901    -0.19100
C2419       C  0.58404811  0.96825358  0.08271789    -0.07600
C2420       C  0.58965032  0.98270474  0.08769246    -0.03700
C2421       C  0.60190819  0.98277944  0.09846754    -0.09000
C2422       C  0.60734221  0.96905939  0.10487826    -0.16600
H2423       H  0.60088397  0.89759778  0.15611856     0.11500
H2424       H  0.60000959  0.92246075  0.14305478     0.10800
H2425       H  0.62122063  0.90266308  0.10279434     0.10700
H2426       H  0.62217567  0.87759775  0.11584550     0.11300
H2427       H  0.58456102  0.94380145  0.08539108     0.11300
H2428       H  0.57498848  0.96757309  0.07414665     0.11300
H2429       H  0.60743895  0.99330909  0.10203727     0.11400
H2430       H  0.61644617  0.96947872  0.11342479     0.10300
C2431       C  0.62481180  0.19457576  0.15546323    -0.03600
C2432       C  0.61978809  0.20642885  0.16525779    -0.09300
C2433       C  0.62394569  0.22168605  0.16236175    -0.17000
C2434       C  0.63314337  0.22538873  0.14960133     0.25200
C2435       C  0.63824457  0.21365031  0.13980222    -0.18600
C2436       C  0.63414987  0.19833702  0.14273182    -0.07600
C2437       C  0.63715847  0.24122664  0.14652089    -0.14000
C2438       C  0.64029314  0.25450735  0.14386330    -0.13700
C2439       C  0.64393553  0.27029046  0.14013168     0.25100
C2440       C  0.65388488  0.27358788  0.12784135    -0.19100
C2441       C  0.65694283  0.28879311  0.12368222    -0.07600
C2442       C  0.65009775  0.30100216  0.13175015    -0.03700
C2443       C  0.64034846  0.29765380  0.14428398    -0.09000
C2444       C  0.63727651  0.28238366  0.14843021    -0.16600
H2445       H  0.61259208  0.20390926  0.17516548     0.11500
H2446       H  0.61990478  0.23060987  0.17004217     0.10800
H2447       H  0.64533228  0.21633743  0.12985626     0.10700
H2448       H  0.63812382  0.18947611  0.13495415     0.11300
H2449       H  0.65913942  0.26438904  0.12132726     0.11300
H2450       H  0.66453893  0.29098489  0.11399890     0.11300
H2451       H  0.63493068  0.30680887  0.15070902     0.11400
H2452       H  0.62956228  0.28001109  0.15797953     0.10300
C2453       C  0.61278032  0.10867779  0.14027321    -0.03600
C2454       C  0.60730652  0.09529587  0.14755270    -0.09300
C2455       C  0.60520321  0.08173749  0.13916929    -0.17000
C2456       C  0.60854985  0.08125940  0.12336214     0.25200
C2457       C  0.61438277  0.09442473  0.11606127    -0.18600
C2458       C  0.61650731  0.10805532  0.12446555    -0.07600
C2459       C  0.60555005  0.06733009  0.11474246    -0.14000
C2460       C  0.60244602  0.05536478  0.10833227    -0.13700
C2461       C  0.59821191  0.04084374  0.10137155     0.25100
C2462       C  0.60003906  0.03847442  0.08550301    -0.19100
C2463       C  0.59543637  0.02460199  0.07870659    -0.07600
C2464       C  0.58918955  0.01250163  0.08771409    -0.03700
C2465       C  0.58726583  0.01527669  0.10370795    -0.09000
C2466       C  0.59178780  0.02918549  0.11043137    -0.16600
H2467       H  0.60426660  0.09539825  0.15968636     0.11500
H2468       H  0.60069100  0.07167657  0.14498469     0.10800
H2469       H  0.61702455  0.09423745  0.10383268     0.10700
H2470       H  0.62064167  0.11819199  0.11852453     0.11300
H2471       H  0.60472021  0.04750507  0.07827957     0.11300
H2472       H  0.59631222  0.02382810  0.06630127     0.11300
H2473       H  0.58202689  0.00662709  0.11101081     0.11400
H2474       H  0.59007936  0.03090633  0.12270729     0.10300
C2475       C  0.36089873  0.29533678  0.13040623    -0.03600
C2476       C  0.37106295  0.29230615  0.14266007    -0.09300
C2477       C  0.37456929  0.27713981  0.14669942    -0.17000
C2478       C  0.36793748  0.26485163  0.13856479     0.25200
C2479       C  0.35765872  0.26782554  0.12650976    -0.18600
C2480       C  0.35414721  0.28291908  0.12247608    -0.07600
C2481       C  0.37180243  0.24919071  0.14231271    -0.14000
C2482       C  0.37509255  0.23601398  0.14504680    -0.13700
C2483       C  0.37959545  0.22041046  0.14826863     0.25100
C2484       C  0.39356372  0.21761189  0.15576503    -0.19100
C2485       C  0.39820376  0.20258844  0.15874316    -0.07600
C2486       C  0.38896821  0.19006014  0.15423048    -0.03700
C2487       C  0.37488528  0.19291019  0.14677729    -0.09000
C2488       C  0.37023102  0.20801263  0.14381785    -0.16600
H2489       H  0.37642664  0.30163132  0.14896766     0.11500
H2490       H  0.38254905  0.27500362  0.15606131     0.10800
H2491       H  0.35244648  0.25846287  0.12011637     0.10700
H2492       H  0.34626776  0.28486559  0.11299081     0.11300
H2493       H  0.40092662  0.22706017  0.15926253     0.11300
H2494       H  0.40910872  0.20078163  0.16451020     0.11300
H2495       H  0.36752915  0.18349453  0.14320666     0.11400
H2496       H  0.35938186  0.21001338  0.13800537     0.10300
C2497       C  0.45218237  0.14914997  0.15747333    -0.03600
C2498       C  0.46193979  0.14960537  0.17041034    -0.09300
C2499       C  0.47788571  0.15051898  0.16849403    -0.17000
C2500       C  0.48426237  0.15095445  0.15364952     0.25200
C2501       C  0.47463448  0.15050085  0.14069520    -0.18600
C2502       C  0.45866025  0.14962037  0.14258974    -0.07600
C2503       C  0.50069532  0.15185449  0.15186610    -0.14000
C2504       C  0.51454568  0.15259072  0.15161952    -0.13700
C2505       C  0.53101511  0.15338908  0.15305104     0.25100
C2506       C  0.54056861  0.14907796  0.14077895    -0.19100
C2507       C  0.55657890  0.14924660  0.14264551    -0.07600
C2508       C  0.56311867  0.15357081  0.15686510    -0.03700
C2509       C  0.55344683  0.15806913  0.16902578    -0.09000
C2510       C  0.53749669  0.15803146  0.16709818    -0.16600
H2511       H  0.45724863  0.14927363  0.18199965     0.11500
H2512       H  0.48524887  0.15087256  0.17859479     0.10800
H2513       H  0.47946328  0.15082102  0.12915809     0.10700
H2514       H  0.45138853  0.14925644  0.13243246     0.11300
H2515       H  0.53565337  0.14540329  0.12987810     0.11300
H2516       H  0.56381260  0.14563458  0.13313817     0.11300
H2517       H  0.55821557  0.16149143  0.18007027     0.11400
H2518       H  0.53019869  0.16139099  0.17665947     0.10300
C2519       C  0.42940167  0.01010454  0.08754206    -0.03600
C2520       C  0.43397025  0.02467136  0.08191420    -0.09300
C2521       C  0.42872323  0.03820552  0.08873116    -0.17000
C2522       C  0.41910696  0.03763263  0.10165869     0.25200
C2523       C  0.41505968  0.02339211  0.10792685    -0.18600
C2524       C  0.42026936  0.00979695  0.10110225    -0.07600
C2525       C  0.41380169  0.05168002  0.10870850    -0.14000
C2526       C  0.40985573  0.06356885  0.11468007    -0.13700
C2527       C  0.40600228  0.07779020  0.12230911     0.25100
C2528       C  0.40216359  0.07776085  0.13801836    -0.19100
C2529       C  0.39997913  0.09159087  0.14588793    -0.07600
C2530       C  0.40149712  0.10567618  0.13813427    -0.03700
C2531       C  0.40467458  0.10563334  0.12220403    -0.09000
C2532       C  0.40699235  0.09176472  0.11436072    -0.16600
H2533       H  0.44150317  0.02555175  0.07198236     0.11500
H2534       H  0.43223473  0.04914094  0.08392245     0.10800
H2535       H  0.40798321  0.02278159  0.11822017     0.10700
H2536       H  0.41733268  0.99918036  0.10680700     0.11300
H2537       H  0.40133542  0.06705818  0.14431201     0.11300
H2538       H  0.39753774  0.09128382  0.15815478     0.11300
H2539       H  0.40605322  0.11631719  0.11598029     0.11400
H2540       H  0.40999629  0.09196764  0.10221471     0.10300
C2541       C  0.51283898  0.93489102  0.43592068    -0.03600
C2542       C  0.52614876  0.94321927  0.43140058    -0.09300
C2543       C  0.52654004  0.95925316  0.43212871    -0.17000
C2544       C  0.51389610  0.96736216  0.43778420     0.25200
C2545       C  0.50104399  0.95932006  0.44324575    -0.18600
C2546       C  0.50060448  0.94331499  0.44252115    -0.07600
C2547       C  0.51395685  0.98391817  0.43776927    -0.14000
C2548       C  0.51359593  0.99776240  0.43744633    -0.13700
C2549       C  0.51282196  0.01428596  0.43688031     0.25100
C2550       C  0.50066217  0.02196784  0.44400197    -0.19100
C2551       C  0.49984790  0.03795945  0.44338548    -0.07600
C2552       C  0.51104242  0.04676500  0.43538299    -0.03700
C2553       C  0.52358168  0.03874308  0.42878799    -0.09000
C2554       C  0.52429036  0.02272759  0.42934030    -0.16600
H2555       H  0.53643642  0.93754439  0.42744586     0.11500
H2556       H  0.53673356  0.96533149  0.42823658     0.10800
H2557       H  0.49125997  0.96542942  0.44792117     0.10700
H2558       H  0.49044553  0.93743036  0.44676302     0.11300
H2559       H  0.49179632  0.01560021  0.45008077     0.11300
H2560       H  0.49033907  0.04357044  0.44912998     0.11300
H2561       H  0.53320149  0.04459472  0.42352516     0.11400
H2562       H  0.53394987  0.01693033  0.42404529     0.10300
C2563       C  0.36247324  0.87012497  0.30959454    -0.03600
C2564       C  0.36099995  0.87981362  0.29670210    -0.09300
C2565       C  0.36308429  0.87415441  0.28175890    -0.17000
C2566       C  0.36667480  0.85872378  0.27941007     0.25200
C2567       C  0.36797331  0.84889725  0.29215891    -0.18600
C2568       C  0.36586634  0.85456186  0.30719018    -0.07600
C2569       C  0.36959555  0.85335229  0.26391043    -0.14000
C2570       C  0.37252091  0.85024718  0.25062678    -0.13700
C2571       C  0.37672157  0.84793928  0.23465780     0.25100
C2572       C  0.36719612  0.85332259  0.22278855    -0.19100
C2573       C  0.37189867  0.85224728  0.20733855    -0.07600
C2574       C  0.38625895  0.84589072  0.20360332    -0.03700
C2575       C  0.39559873  0.84021617  0.21556098    -0.09000
C2576       C  0.39084948  0.84122112  0.23096741    -0.16600
H2577       H  0.35838840  0.89184927  0.29816458     0.11500
H2578       H  0.36208717  0.88188794  0.27202292     0.10800
H2579       H  0.37079207  0.83693173  0.29049908     0.10700
H2580       H  0.36707082  0.84684893  0.31690577     0.11300
H2581       H  0.35627327  0.85862703  0.22549444     0.11300
H2582       H  0.36448574  0.85670601  0.19836346     0.11300
H2583       H  0.40668153  0.83517378  0.21301931     0.11400
H2584       H  0.39834942  0.83705291  0.24002201     0.10300
C2585       C  0.40147692  0.88669255  0.37347458    -0.03600
C2586       C  0.40336849  0.88396515  0.38936846    -0.09300
C2587       C  0.41789934  0.88562021  0.39628746    -0.17000
C2588       C  0.43072154  0.88993457  0.38740828     0.25200
C2589       C  0.42896369  0.89231974  0.37151976    -0.18600
C2590       C  0.41447291  0.89073594  0.36461203    -0.07600
C2591       C  0.44546718  0.89274490  0.39467870    -0.14000
C2592       C  0.45753931  0.89603933  0.40085315    -0.13700
C2593       C  0.47142477  0.90112699  0.40856966     0.25100
C2594       C  0.48084322  0.89073078  0.41637003    -0.19100
C2595       C  0.49374725  0.89595788  0.42458484    -0.07600
C2596       C  0.49731987  0.91177328  0.42557386    -0.03700
C2597       C  0.48820003  0.92194183  0.41675440    -0.09000
C2598       C  0.47533063  0.91668447  0.40857149    -0.16600
H2599       H  0.39355838  0.88098848  0.39650637     0.11500
H2600       H  0.41906848  0.88383533  0.40861453     0.10800
H2601       H  0.43873746  0.89572259  0.36451023     0.10700
H2602       H  0.41338517  0.89297168  0.35235615     0.11300
H2603       H  0.47812509  0.87860024  0.41626410     0.11300
H2604       H  0.50079225  0.88766634  0.43058412     0.11300
H2605       H  0.49092985  0.93399130  0.41587053     0.11400
H2606       H  0.46836466  0.92482327  0.40225797     0.10300
C2607       C  0.31309408  0.10968791  0.36780433    -0.03600
C2608       C  0.31085159  0.12487984  0.37269648    -0.09300
C2609       C  0.29597053  0.13024376  0.37584968    -0.17000
C2610       C  0.28319290  0.12046208  0.37422517     0.25200
C2611       C  0.28540606  0.10529824  0.36948686    -0.18600
C2612       C  0.30021133  0.09996121  0.36626255    -0.07600
C2613       C  0.26778832  0.12580506  0.37745150    -0.14000
C2614       C  0.25468071  0.12955624  0.38022001    -0.13700
C2615       C  0.23895077  0.13349558  0.38394511     0.25100
C2616       C  0.22661944  0.12593215  0.37669620    -0.19100
C2617       C  0.21138214  0.12927024  0.38086070    -0.07600
C2618       C  0.20828812  0.14020441  0.39237158    -0.03700
C2619       C  0.22074010  0.14791182  0.39940222    -0.09000
C2620       C  0.23592921  0.14457460  0.39522503    -0.16600
H2621       H  0.32055712  0.13263240  0.37390837     0.11500
H2622       H  0.29443114  0.14200771  0.37951538     0.10800
H2623       H  0.27566104  0.09758952  0.36822947     0.10700
H2624       H  0.30157363  0.08819387  0.36254181     0.11300
H2625       H  0.22878372  0.11731648  0.36795807     0.11300
H2626       H  0.20204819  0.12316234  0.37524453     0.11300
H2627       H  0.21874924  0.15641349  0.40828939     0.11400
H2628       H  0.24532434  0.15050943  0.40094258     0.10300
C2629       C  0.38728495  0.13759525  0.20674849    -0.03600
C2630       C  0.37152879  0.13466460  0.20917437    -0.09300
C2631       C  0.36596068  0.13176176  0.22409201    -0.17000
C2632       C  0.37608439  0.13177887  0.23669639     0.25200
C2633       C  0.39176364  0.13466762  0.23433122    -0.18600
C2634       C  0.39733374  0.13755908  0.21948058    -0.07600
C2635       C  0.37064618  0.12844616  0.25205300    -0.14000
C2636       C  0.36727407  0.12510011  0.26514490    -0.13700
C2637       C  0.36448727  0.12010381  0.28075068     0.25100
C2638       C  0.36454089  0.13062048  0.29299618    -0.19100
C2639       C  0.36276602  0.12547794  0.30822905    -0.07600
C2640       C  0.36098794  0.10975311  0.31132785    -0.03700
C2641       C  0.36079022  0.09932660  0.29893974    -0.09000
C2642       C  0.36252391  0.10447503  0.28377237    -0.16600
H2643       H  0.36354931  0.13459008  0.19956265     0.11500
H2644       H  0.35380768  0.12945159  0.22578195     0.10800
H2645       H  0.39971539  0.13462186  0.24397717     0.10700
H2646       H  0.40952937  0.13973902  0.21796352     0.11300
H2647       H  0.36614358  0.14274487  0.29078965     0.11300
H2648       H  0.36294628  0.13374492  0.31756309     0.11300
H2649       H  0.35940091  0.08715149  0.30097496     0.11400
H2650       H  0.36254161  0.09622925  0.27440734     0.10300
C2651       C  0.35491876  0.93590724  0.36003041    -0.03600
C2652       C  0.35214087  0.94206977  0.37477283    -0.09300
C2653       C  0.35127809  0.95794328  0.37682279    -0.17000
C2654       C  0.35321039  0.96774431  0.36416830     0.25200
C2655       C  0.35595116  0.96167059  0.34947513    -0.18600
C2656       C  0.35678005  0.94584644  0.34740014    -0.07600
C2657       C  0.35241533  0.98405804  0.36606979    -0.14000
C2658       C  0.35197279  0.99783487  0.36631246    -0.13700
C2659       C  0.35175446  0.01422225  0.36496161     0.25100
C2660       C  0.34950455  0.02086164  0.35044060    -0.19100
C2661       C  0.34989234  0.03675997  0.34879373    -0.07600
C2662       C  0.35253447  0.04620664  0.36168007    -0.03700
C2663       C  0.35456909  0.03947945  0.37628706    -0.09000
C2664       C  0.35420682  0.02353398  0.37790841    -0.16600
H2665       H  0.35064259  0.93463564  0.38468048     0.11500
H2666       H  0.34913432  0.96255874  0.38823853     0.10800
H2667       H  0.35746276  0.96917811  0.33961474     0.10700
H2668       H  0.35894581  0.94139565  0.33592628     0.11300
H2669       H  0.34762239  0.01373420  0.34035217     0.11300
H2670       H  0.34827784  0.04165049  0.33741531     0.11300
H2671       H  0.35664747  0.04652156  0.38638721     0.11400
H2672       H  0.35599598  0.01847872  0.38919075     0.10300
C2673       C  0.39861761  0.09688102  0.37763706    -0.03600
C2674       C  0.39961567  0.09760548  0.39383627    -0.09300
C2675       C  0.41387458  0.09603283  0.40125208    -0.17000
C2676       C  0.42731442  0.09380997  0.39257787     0.25200
C2677       C  0.42644522  0.09355214  0.37642698    -0.18600
C2678       C  0.41221645  0.09506245  0.36900802    -0.07600
C2679       C  0.44181297  0.09082261  0.40018732    -0.14000
C2680       C  0.45380183  0.08726396  0.40629415    -0.13700
C2681       C  0.46779763  0.08172432  0.41335614     0.25100
C2682       C  0.47080536  0.06601676  0.41347472    -0.19100
C2683       C  0.48421977  0.06039021  0.42030884    -0.07600
C2684       C  0.49483871  0.07032948  0.42774665    -0.03700
C2685       C  0.49184910  0.08624913  0.42697313    -0.09000
C2686       C  0.47846288  0.09185581  0.41996190    -0.16600
H2687       H  0.38932710  0.09887223  0.40077981     0.11500
H2688       H  0.41435840  0.09617290  0.41375684     0.10800
H2689       H  0.43671981  0.09178900  0.36956562     0.10700
H2690       H  0.41180865  0.09441448  0.35651989     0.11300
H2691       H  0.46280287  0.05805512  0.40812397     0.11300
H2692       H  0.48613806  0.04822344  0.41941332     0.11300
H2693       H  0.49986623  0.09436213  0.43204284     0.11400
H2694       H  0.47642223  0.10408914  0.41975312     0.10300
C2695       C  0.62404221  0.84773213  0.20147356    -0.03600
C2696       C  0.63897890  0.85340555  0.20415386    -0.09300
C2697       C  0.64458213  0.85479343  0.21927766    -0.17000
C2698       C  0.63536532  0.85041067  0.23183971     0.25200
C2699       C  0.62049005  0.84475918  0.22921891    -0.18600
C2700       C  0.61484370  0.84347715  0.21415988    -0.07600
C2701       C  0.64078035  0.85244422  0.24745543    -0.14000
C2702       C  0.64456276  0.85527863  0.26057329    -0.13700
C2703       C  0.64823591  0.86059123  0.27591640     0.25100
C2704       C  0.65049247  0.85030817  0.28814700    -0.19100
C2705       C  0.65340316  0.85584730  0.30309784    -0.07600
C2706       C  0.65411093  0.87171864  0.30590831    -0.03700
C2707       C  0.65199003  0.88189090  0.29350963    -0.09000
C2708       C  0.64904639  0.87636268  0.27866651    -0.16600
H2709       H  0.64624279  0.85687940  0.19459314     0.11500
H2710       H  0.65604836  0.85936931  0.22117766     0.10800
H2711       H  0.61319657  0.84146210  0.23882986     0.10700
H2712       H  0.60328322  0.83907935  0.21243951     0.11300
H2713       H  0.64986471  0.83806202  0.28616432     0.11300
H2714       H  0.65504082  0.84776435  0.31243475     0.11300
H2715       H  0.65243946  0.89416905  0.29530829     0.11400
H2716       H  0.64726017  0.88442843  0.26932954     0.10300
C2717       C  0.61927179  0.88533619  0.37169827    -0.03600
C2718       C  0.60600365  0.89084858  0.36425455    -0.09300
C2719       C  0.59196371  0.89170148  0.37212186    -0.17000
C2720       C  0.59091212  0.88706572  0.38756165     0.25200
C2721       C  0.60395534  0.88113188  0.39495667    -0.18600
C2722       C  0.61805281  0.88023858  0.38706865    -0.07600
C2723       C  0.57671289  0.88938684  0.39595949    -0.14000
C2724       C  0.56492464  0.89256215  0.40266136    -0.13700
C2725       C  0.55114505  0.89765150  0.41047327     0.25100
C2726       C  0.54775101  0.89259570  0.42542391    -0.19100
C2727       C  0.53499051  0.89839280  0.43337762    -0.07600
C2728       C  0.52553890  0.90978812  0.42669300    -0.03700
C2729       C  0.52860281  0.91393195  0.41119252    -0.09000
C2730       C  0.54134892  0.90812368  0.40328578    -0.16600
H2731       H  0.60655725  0.89487492  0.35243388     0.11500
H2732       H  0.58200684  0.89635236  0.36626060     0.10800
H2733       H  0.60332791  0.87755065  0.40692191     0.10700
H2734       H  0.62807620  0.87599858  0.39311497     0.11300
H2735       H  0.55503948  0.88422178  0.43100352     0.11300
H2736       H  0.53264726  0.89375337  0.44470045     0.11300
H2737       H  0.52132148  0.92212991  0.40535652     0.11400
H2738       H  0.54368812  0.91199555  0.39162146     0.10300
C2739       C  0.62926129  0.14053703  0.20683682    -0.03600
C2740       C  0.61941228  0.13823284  0.21953143    -0.09300
C2741       C  0.62540260  0.13493264  0.23411814    -0.17000
C2742       C  0.64132062  0.13388287  0.23628831     0.25200
C2743       C  0.65126450  0.13622932  0.22373477    -0.18600
C2744       C  0.64526833  0.13955208  0.20907038    -0.07600
C2745       C  0.64719147  0.13002651  0.25137868    -0.14000
C2746       C  0.65078669  0.12625918  0.26430520    -0.13700
C2747       C  0.65377181  0.12102141  0.27982359     0.25100
C2748       C  0.65615330  0.10541532  0.28259616    -0.19100
C2749       C  0.65809304  0.10008054  0.29769534    -0.07600
C2750       C  0.65766943  0.11028932  0.31027392    -0.03700
C2751       C  0.65545034  0.12598129  0.30741057    -0.09000
C2752       C  0.65348981  0.13130466  0.29226533    -0.16600
H2753       H  0.60703777  0.13891942  0.21818300     0.11500
H2754       H  0.61758622  0.13310505  0.24370976     0.10800
H2755       H  0.66361251  0.13540933  0.22525682     0.10700
H2756       H  0.65311362  0.14128371  0.19949654     0.11300
H2757       H  0.65630105  0.09732612  0.27309638     0.11300
H2758       H  0.65977969  0.08792936  0.29953481     0.11300
H2759       H  0.65505761  0.13409143  0.31687377     0.11400
H2760       H  0.65155371  0.14339861  0.29028135     0.10300
C2761       C  0.70458776  0.11070086  0.36739544    -0.03600
C2762       C  0.71789678  0.10463518  0.36051310    -0.09300
C2763       C  0.73249834  0.10972812  0.36501713    -0.17000
C2764       C  0.73404673  0.12092256  0.37649481     0.25200
C2765       C  0.72085009  0.12704704  0.38343675    -0.18600
C2766       C  0.70618047  0.12199344  0.37888521    -0.07600
C2767       C  0.74922746  0.12589260  0.38115398    -0.14000
C2768       C  0.76222936  0.12935868  0.38475238    -0.13700
C2769       C  0.77792598  0.13275083  0.38911566     0.25100
C2770       C  0.78112362  0.13895507  0.40367826    -0.19100
C2771       C  0.79636903  0.14154495  0.40824303    -0.07600
C2772       C  0.80867738  0.13789419  0.39832882    -0.03700
C2773       C  0.80537931  0.13190534  0.38361495    -0.09000
C2774       C  0.79008765  0.12935631  0.37904487    -0.16600
H2775       H  0.71702882  0.09590736  0.35165063     0.11500
H2776       H  0.74259984  0.10487520  0.35958114     0.10800
H2777       H  0.72189939  0.13567310  0.39238521     0.10700
H2778       H  0.69612134  0.12678112  0.38444100     0.11300
H2779       H  0.77184168  0.14164349  0.41157695     0.11300
H2780       H  0.79852981  0.14628004  0.41961029     0.11300
H2781       H  0.81460495  0.12914575  0.37568842     0.11400
H2782       H  0.78775982  0.12458007  0.36772352     0.10300
C2783       C  0.66719344  0.93646780  0.35767241    -0.03600
C2784       C  0.66519646  0.94692575  0.34550571    -0.09300
C2785       C  0.66670535  0.96265592  0.34811420    -0.17000
C2786       C  0.67023640  0.96815093  0.36289381     0.25200
C2787       C  0.67232218  0.95782837  0.37507995    -0.18600
C2788       C  0.67080755  0.94204959  0.37248941    -0.07600
C2789       C  0.67125152  0.98441974  0.36542999    -0.14000
C2790       C  0.67122209  0.99821926  0.36600877    -0.13700
C2791       C  0.67004848  0.01458723  0.36455686     0.25100
C2792       C  0.67398540  0.02436625  0.37679776    -0.19100
C2793       C  0.67245897  0.04026056  0.37511255    -0.07600
C2794       C  0.66703615  0.04644717  0.36114297    -0.03700
C2795       C  0.66318888  0.03652380  0.34894965    -0.09000
C2796       C  0.66465694  0.02071966  0.35066854    -0.16600
H2797       H  0.66238031  0.94295404  0.33398662     0.11500
H2798       H  0.66501034  0.97055093  0.33861229     0.10800
H2799       H  0.67500913  0.96196765  0.38657382     0.10700
H2800       H  0.67239144  0.93423254  0.38206371     0.11300
H2801       H  0.67816409  0.01972348  0.38760720     0.11300
H2802       H  0.67553329  0.04768697  0.38466729     0.11300
H2803       H  0.65894803  0.04097234  0.33808388     0.11400
H2804       H  0.66153664  0.01325600  0.34114600     0.10300
C2805       C  0.61958960  0.09714232  0.37640744    -0.03600
C2806       C  0.61834037  0.09680368  0.39260285    -0.09300
C2807       C  0.60385529  0.09544949  0.39964626    -0.17000
C2808       C  0.59049827  0.09455254  0.39057661     0.25200
C2809       C  0.59166697  0.09540831  0.37448919    -0.18600
C2810       C  0.60609444  0.09666432  0.36744858    -0.07600
C2811       C  0.57566549  0.09188752  0.39760188    -0.14000
C2812       C  0.56332145  0.08884700  0.40327900    -0.13700
C2813       C  0.54910201  0.08439448  0.41066207     0.25100
C2814       C  0.53835556  0.07511890  0.40298231    -0.19100
C2815       C  0.52541004  0.06949936  0.41085845    -0.07600
C2816       C  0.52329946  0.07249405  0.42677377    -0.03700
C2817       C  0.53347023  0.08319643  0.43377852    -0.09000
C2818       C  0.54633883  0.08879896  0.42589677    -0.16600
H2819       H  0.62855896  0.09704129  0.39977041     0.11500
H2820       H  0.60310327  0.09473939  0.41211863     0.10800
H2821       H  0.58143905  0.09471286  0.36735066     0.10700
H2822       H  0.60671278  0.09690523  0.35495476     0.11300
H2823       H  0.54018269  0.07188778  0.39104021     0.11300
H2824       H  0.51744672  0.06205278  0.40476940     0.11300
H2825       H  0.53178049  0.08729372  0.44541825     0.11400
H2826       H  0.55431022  0.09637891  0.43182309     0.10300
C2827       C  0.01067707  0.93804431  0.58566819    -0.03600
C2828       C  0.99805730  0.94612007  0.59196893    -0.09300
C2829       C  0.99828216  0.96213927  0.59300382    -0.17000
C2830       C  0.01091929  0.97054333  0.58755458     0.25200
C2831       C  0.02348501  0.96282228  0.58124536    -0.18600
C2832       C  0.02334772  0.94683371  0.58025141    -0.07600
C2833       C  0.01068542  0.98709661  0.58783579    -0.14000
C2834       C  0.01021013  0.00094282  0.58775951    -0.13700
C2835       C  0.00941125  0.01747747  0.58741561     0.25100
C2836       C  0.02186783  0.02635942  0.59247899    -0.19100
C2837       C  0.02125468  0.04238450  0.59185091    -0.07600
C2838       C  0.00792501  0.05000891  0.58647582    -0.03700
C2839       C  0.99563301  0.04072200  0.58103685    -0.09000
C2840       C  0.99631678  0.02472137  0.58163363    -0.16600
H2841       H  0.98765345  0.94034238  0.59558265     0.11500
H2842       H  0.98837210  0.96800868  0.59771536     0.10800
H2843       H  0.03329666  0.96916905  0.57682773     0.10700
H2844       H  0.03311292  0.94122291  0.57495905     0.11300
H2845       H  0.03223371  0.02088339  0.59664822     0.11300
H2846       H  0.03157191  0.04853747  0.59504822     0.11300
H2847       H  0.98544121  0.04595939  0.57619277     0.11400
H2848       H  0.98666512  0.01800037  0.57742152     0.10300
C2849       C  0.00888691  0.93942359  0.43075000    -0.03600
C2850       C  0.02178491  0.94852578  0.43494323    -0.09300
C2851       C  0.02194122  0.96441343  0.43274630    -0.17000
C2852       C  0.00907608  0.97183434  0.42666171     0.25200
C2853       C  0.99597113  0.96317085  0.42292179    -0.18600
C2854       C  0.99579867  0.94720759  0.42502844    -0.07600
C2855       C  0.00912872  0.98840152  0.42516676    -0.14000
C2856       C  0.00954049  0.00229811  0.42526439    -0.13700
C2857       C  0.01016216  0.01874793  0.42765434     0.25100
C2858       C  0.00937452  0.02916404  0.41534725    -0.19100
C2859       C  0.00950063  0.04504437  0.41820629    -0.07600
C2860       C  0.00981052  0.05087661  0.43347222    -0.03700
C2861       C  0.01179055  0.04008600  0.44554992    -0.09000
C2862       C  0.01169416  0.02434301  0.44267752    -0.16600
H2863       H  0.03186246  0.94322026  0.43995021     0.11500
H2864       H  0.03207241  0.97094685  0.43602315     0.10800
H2865       H  0.98574099  0.96879193  0.41862232     0.10700
H2866       H  0.98515976  0.94123280  0.42259770     0.11300
H2867       H  0.00856991  0.02504009  0.40357064     0.11300
H2868       H  0.00885758  0.05284703  0.40850621     0.11300
H2869       H  0.01368442  0.04357737  0.45736345     0.11400
H2870       H  0.01285975  0.01647670  0.45228737     0.10300
C2871       C  0.01085534  0.92110272  0.45213671    -0.03600
C2872       C  0.02388022  0.91497893  0.45977057    -0.09300
C2873       C  0.02453799  0.91428552  0.47590254    -0.17000
C2874       C  0.01252333  0.92014405  0.48481691     0.25200
C2875       C  0.99997089  0.92700720  0.47756294    -0.18600
C2876       C  0.99922713  0.92765149  0.46146229    -0.07600
C2877       C  0.01315553  0.91942895  0.50141926    -0.14000
C2878       C  0.01322180  0.91916297  0.51534649    -0.13700
C2879       C  0.01272768  0.91925966  0.53196755     0.25100
C2880       C  0.00033140  0.92602387  0.53957960    -0.19100
C2881       C  0.99977939  0.92620126  0.55569185    -0.07600
C2882       C  0.01147052  0.91932140  0.56468555    -0.03700
C2883       C  0.02424067  0.91309262  0.55670008    -0.09000
C2884       C  0.02471748  0.91289887  0.54054738    -0.16600
H2885       H  0.03379800  0.91090906  0.45352850     0.11500
H2886       H  0.03452046  0.90929883  0.48142730     0.10800
H2887       H  0.99070842  0.93184247  0.48435382     0.10700
H2888       H  0.98930999  0.93298635  0.45617415     0.11300
H2889       H  0.99108745  0.93122991  0.53305793     0.11300
H2890       H  0.99007402  0.93165479  0.56125599     0.11300
H2891       H  0.03418040  0.90871517  0.56267908     0.11400
H2892       H  0.03457260  0.90795907  0.53474764     0.10300
C2893       C  0.89937847  0.86237728  0.61559295    -0.03600
C2894       C  0.89993900  0.87849204  0.61583653    -0.09300
C2895       C  0.91409302  0.88626377  0.61459517    -0.17000
C2896       C  0.92786193  0.87803340  0.61322195     0.25200
C2897       C  0.92738173  0.86199459  0.61339558    -0.18600
C2898       C  0.91327931  0.85423261  0.61453254    -0.07600
C2899       C  0.94236700  0.88588036  0.61058895    -0.14000
C2900       C  0.95450544  0.89185691  0.60712671    -0.13700
C2901       C  0.96866946  0.89849706  0.60127906     0.25100
C2902       C  0.97202685  0.89733266  0.58554679    -0.19100
C2903       C  0.98542945  0.90393200  0.57949737    -0.07600
C2904       C  0.99568146  0.91244772  0.58896395    -0.03700
C2905       C  0.99252449  0.91274705  0.60500749    -0.09000
C2906       C  0.97911550  0.90598860  0.61106336    -0.16600
H2907       H  0.88941979  0.88506730  0.61647304     0.11500
H2908       H  0.91425865  0.89867584  0.61435151     0.10800
H2909       H  0.93789541  0.85546153  0.61226491     0.10700
H2910       H  0.91322958  0.84182338  0.61426047     0.11300
H2911       H  0.96426688  0.89121687  0.57788511     0.11300
H2912       H  0.98761718  0.90205795  0.56737808     0.11300
H2913       H  0.00034608  0.91857151  0.61281862     0.11400
H2914       H  0.97685450  0.90672280  0.62334635     0.10300
C2915       C  0.81134753  0.84967432  0.38862026    -0.03600
C2916       C  0.79854647  0.84252720  0.39561308    -0.09300
C2917       C  0.78355980  0.84569654  0.39064749    -0.17000
C2918       C  0.78103082  0.85607394  0.37860065     0.25200
C2919       C  0.79371336  0.86321130  0.37148835    -0.18600
C2920       C  0.80877717  0.86002967  0.37645113    -0.07600
C2921       C  0.76540588  0.85946596  0.37381306    -0.14000
C2922       C  0.75217294  0.86219501  0.37034340    -0.13700
C2923       C  0.73634477  0.86574658  0.36643029     0.25100
C2924       C  0.73299037  0.87338448  0.35262031    -0.19100
C2925       C  0.71781488  0.87747042  0.34909681    -0.07600
C2926       C  0.70567960  0.87392841  0.35929483    -0.03700
C2927       C  0.70904779  0.86595912  0.37299371    -0.09000
C2928       C  0.72428334  0.86194646  0.37655130    -0.16600
H2929       H  0.80010454  0.83448233  0.40499861     0.11500
H2930       H  0.77391859  0.84008439  0.39627935     0.10800
H2931       H  0.79196151  0.87128230  0.36215763     0.10700
H2932       H  0.81838233  0.86570590  0.37084093     0.11300
H2933       H  0.74214399  0.87637788  0.34465045     0.11300
H2934       H  0.71559566  0.88355349  0.33843182     0.11300
H2935       H  0.69996479  0.86311958  0.38109041     0.11400
H2936       H  0.72667484  0.85604537  0.38728606     0.10300
C2937       C  0.85111802  0.84352161  0.45265254    -0.03600
C2938       C  0.85796539  0.83245431  0.46217728    -0.09300
C2939       C  0.85716395  0.83378778  0.47821244    -0.17000
C2940       C  0.84944717  0.84613561  0.48492612     0.25200
C2941       C  0.84242867  0.85713923  0.47554400    -0.18600
C2942       C  0.84329735  0.85587042  0.45945018    -0.07600
C2943       C  0.84900407  0.84745338  0.50145286    -0.14000
C2944       C  0.84935347  0.84754276  0.51535221    -0.13700
C2945       C  0.85033725  0.84641361  0.53186808     0.25100
C2946       C  0.85332673  0.85943262  0.54086222    -0.19100
C2947       C  0.85458804  0.85812197  0.55691798    -0.07600
C2948       C  0.85292853  0.84374979  0.56407313    -0.03700
C2949       C  0.84994068  0.83075569  0.55493775    -0.09000
C2950       C  0.84864914  0.83209353  0.53893305    -0.16600
H2951       H  0.86409182  0.82285118  0.45723109     0.11500
H2952       H  0.86263755  0.82522174  0.48538255     0.10800
H2953       H  0.83639159  0.86671869  0.48065335     0.10700
H2954       H  0.83787176  0.86450324  0.45233943     0.11300
H2955       H  0.85474759  0.87055320  0.53547048     0.11300
H2956       H  0.85696733  0.86829068  0.56370775     0.11300
H2957       H  0.84863828  0.81954544  0.56015820     0.11400
H2958       H  0.84641219  0.82194154  0.53205628     0.10300
C2959       C  0.89758363  0.86185773  0.40351134    -0.03600
C2960       C  0.91110497  0.85339005  0.40607138    -0.09300
C2961       C  0.92538107  0.86078297  0.40768642    -0.17000
C2962       C  0.92643105  0.87678484  0.40682998     0.25200
C2963       C  0.91306031  0.88530041  0.40400409    -0.18600
C2964       C  0.89874360  0.87789986  0.40231581    -0.07600
C2965       C  0.94106079  0.88442371  0.40962190    -0.14000
C2966       C  0.95317292  0.89062708  0.41286179    -0.13700
C2967       C  0.96733230  0.89794295  0.41797540     0.25100
C2968       C  0.97672068  0.90612593  0.40767892    -0.19100
C2969       C  0.99011523  0.91355886  0.41295728    -0.07600
C2970       C  0.99427870  0.91335113  0.42875684    -0.03700
C2971       C  0.98507655  0.90422980  0.43874840    -0.09000
C2972       C  0.97172461  0.89687580  0.43345977    -0.16600
H2973       H  0.91061330  0.84102748  0.40709470     0.11500
H2974       H  0.93556512  0.85401570  0.40990639     0.10800
H2975       H  0.91364888  0.89768872  0.40338701     0.10700
H2976       H  0.88854200  0.88473998  0.40048026     0.11300
H2977       H  0.97365876  0.90684353  0.39557309     0.11300
H2978       H  0.99714402  0.91979639  0.40472875     0.11300
H2979       H  0.98812644  0.90239269  0.45068585     0.11400
H2980       H  0.96482344  0.89026411  0.44151314     0.10300
C2981       C  0.12068371  0.86202151  0.61114911    -0.03600
C2982       C  0.10713343  0.85375949  0.60785128    -0.09300
C2983       C  0.09289319  0.86110511  0.60750961    -0.17000
C2984       C  0.09194361  0.87684416  0.61036592     0.25200
C2985       C  0.10536257  0.88518381  0.61385355    -0.18600
C2986       C  0.11967168  0.87779496  0.61432088    -0.07600
C2987       C  0.07725888  0.88437666  0.60891949    -0.14000
C2988       C  0.06486857  0.89017061  0.60660389    -0.13700
C2989       C  0.05042204  0.89716836  0.60247888     0.25100
C2990       C  0.04765053  0.91245794  0.60629826    -0.19100
C2991       C  0.03456061  0.91987668  0.60069338    -0.07600
C2992       C  0.02415707  0.91227440  0.59064615    -0.03700
C2993       C  0.02636757  0.89640028  0.58824006    -0.09000
C2994       C  0.03949966  0.88901463  0.59384031    -0.16600
H2995       H  0.10756049  0.84160509  0.60535596     0.11500
H2996       H  0.08263411  0.85453437  0.60473995     0.10800
H2997       H  0.10479807  0.89740489  0.61597070     0.10700
H2998       H  0.12995081  0.88445226  0.61675255     0.11300
H2999       H  0.05580482  0.91878735  0.61334598     0.11300
H3000       H  0.03289429  0.93162911  0.60418152     0.11300
H3001       H  0.01831521  0.88992778  0.58121600     0.11400
H3002       H  0.04135390  0.87706812  0.59102163     0.10300
C3003       C  0.20659418  0.85409537  0.39094134    -0.03600
C3004       C  0.21844095  0.84431232  0.39590023    -0.09300
C3005       C  0.23385011  0.84782287  0.39282947    -0.17000
C3006       C  0.23772621  0.86117727  0.38477307     0.25200
C3007       C  0.22601676  0.87102164  0.37975392    -0.18600
C3008       C  0.21051683  0.86750332  0.38281625    -0.07600
C3009       C  0.25372044  0.86455677  0.38157840    -0.14000
C3010       C  0.26715623  0.86697845  0.37876952    -0.13700
C3011       C  0.28300202  0.87013384  0.37470553     0.25100
C3012       C  0.29510551  0.86164876  0.38113218    -0.19100
C3013       C  0.31042690  0.86478290  0.37689373    -0.07600
C3014       C  0.31376758  0.87643047  0.36615671    -0.03700
C3015       C  0.30151235  0.88483339  0.35980106    -0.09000
C3016       C  0.28630006  0.88171526  0.36404348    -0.16600
H3017       H  0.21580830  0.83392335  0.40223595     0.11500
H3018       H  0.24275674  0.84010287  0.39676282     0.10800
H3019       H  0.22886485  0.88140567  0.37349674     0.10700
H3020       H  0.20164606  0.87528470  0.37895301     0.11300
H3021       H  0.29270590  0.85262733  0.38939556     0.11300
H3022       H  0.31961882  0.85816085  0.38200535     0.11300
H3023       H  0.30367731  0.89391081  0.35154072     0.11400
H3024       H  0.27708708  0.88835606  0.35897162     0.10300
C3025       C  0.16908503  0.85119695  0.45038471    -0.03600
C3026       C  0.16884438  0.86606382  0.45664632    -0.09300
C3027       C  0.17037696  0.86821799  0.47259278    -0.17000
C3028       C  0.17225433  0.85553496  0.48229509     0.25200
C3029       C  0.17281165  0.84077216  0.47607105    -0.18600
C3030       C  0.17124011  0.83860014  0.46021847    -0.07600
C3031       C  0.17280056  0.85727673  0.49873617    -0.14000
C3032       C  0.17245127  0.85663311  0.51259566    -0.13700
C3033       C  0.17109418  0.85381338  0.52883938     0.25100
C3034       C  0.16519180  0.83973250  0.53390425    -0.19100
C3035       C  0.16351606  0.83687297  0.54966620    -0.07600
C3036       C  0.16772077  0.84810722  0.56051212    -0.03700
C3037       C  0.17375428  0.86218635  0.55534542    -0.09000
C3038       C  0.17543924  0.86501997  0.53955392    -0.16600
H3039       H  0.16718687  0.87594273  0.44927572     0.11500
H3040       H  0.16985605  0.87968637  0.47735693     0.10800
H3041       H  0.17419585  0.83089433  0.48352002     0.10700
H3042       H  0.17150862  0.82703328  0.45568471     0.11300
H3043       H  0.16181690  0.83098990  0.52565667     0.11300
H3044       H  0.15886681  0.82592874  0.55335838     0.11300
H3045       H  0.17712921  0.87100202  0.56349960     0.11400
H3046       H  0.18004347  0.87593631  0.53571237     0.10300
C3047       C  0.11872795  0.86329885  0.40122267    -0.03600
C3048       C  0.10679823  0.85687473  0.41016945    -0.09300
C3049       C  0.09247645  0.86401942  0.41120182    -0.17000
C3050       C  0.08975377  0.87772837  0.40332554     0.25200
C3051       C  0.10145377  0.88409508  0.39410034    -0.18600
C3052       C  0.11586622  0.87690657  0.39302605    -0.07600
C3053       C  0.07516918  0.88542083  0.40542379    -0.14000
C3054       C  0.06299524  0.89142092  0.40846082    -0.13700
C3055       C  0.04877473  0.89854338  0.41333772     0.25100
C3056       C  0.04562410  0.91371064  0.40928551    -0.19100
C3057       C  0.03262104  0.92111233  0.41520686    -0.07600
C3058       C  0.02269667  0.91366855  0.42584865    -0.03700
C3059       C  0.02529617  0.89790098  0.42859401    -0.09000
C3060       C  0.03832561  0.89053527  0.42267643    -0.16600
H3061       H  0.10861413  0.84641793  0.41663642     0.11500
H3062       H  0.08359053  0.85896845  0.41839935     0.10800
H3063       H  0.09953301  0.89473074  0.38796635     0.10700
H3064       H  0.12484275  0.88214478  0.38609756     0.11300
H3065       H  0.05336676  0.91993759  0.40170645     0.11300
H3066       H  0.03061381  0.93271328  0.41142444     0.11300
H3067       H  0.01763364  0.89149872  0.43609731     0.11400
H3068       H  0.04043413  0.87868773  0.42571129     0.10300
C3069       C  0.08605106  0.44053878  0.50880983    -0.03600
C3070       C  0.09238007  0.44898855  0.49635155    -0.09300
C3071       C  0.09400697  0.46496163  0.49717838    -0.17000
C3072       C  0.08913811  0.47298041  0.51028235     0.25200
C3073       C  0.08266326  0.46490309  0.52263055    -0.18600
C3074       C  0.08102865  0.44896217  0.52186331    -0.07600
C3075       C  0.09001965  0.48953938  0.51068353    -0.14000
C3076       C  0.09016355  0.50340751  0.51049124    -0.13700
C3077       C  0.08953967  0.51994121  0.50948918     0.25100
C3078       C  0.09522991  0.52916928  0.52144371    -0.19100
C3079       C  0.09399479  0.54517257  0.52064518    -0.07600
C3080       C  0.08730877  0.55239077  0.50763057    -0.03700
C3081       C  0.08148817  0.54275419  0.49579752    -0.09000
C3082       C  0.08267619  0.52681707  0.49667752    -0.16600
H3083       H  0.09558808  0.44355752  0.48563675     0.11500
H3084       H  0.09874285  0.47111323  0.48738381     0.10800
H3085       H  0.07860879  0.47094801  0.53276828     0.10700
H3086       H  0.07562750  0.44310257  0.53148719     0.11300
H3087       H  0.10030956  0.52397731  0.53158870     0.11300
H3088       H  0.09774591  0.55161528  0.53060452     0.11300
H3089       H  0.07577484  0.54766309  0.48585730     0.11400
H3090       H  0.07801246  0.51983605  0.48742069     0.10300
C3091       C  0.95437986  0.56638541  0.51020973    -0.03600
C3092       C  0.96397779  0.55336103  0.51140527    -0.09300
C3093       C  0.97998828  0.55488720  0.51159137    -0.17000
C3094       C  0.98683362  0.56939208  0.51119181     0.25200
C3095       C  0.97760330  0.58244724  0.51114832    -0.18600
C3096       C  0.96157370  0.58097475  0.51078066    -0.07600
C3097       C  0.00333247  0.57076517  0.51052770    -0.14000
C3098       C  0.01717554  0.57125116  0.50963924    -0.13700
C3099       C  0.03370840  0.57111935  0.50866094     0.25100
C3100       C  0.04116915  0.57591077  0.49517502    -0.19100
C3101       C  0.05724919  0.57557792  0.49420310    -0.07600
C3102       C  0.06625243  0.57072832  0.50690986    -0.03700
C3103       C  0.05835235  0.56523174  0.52011977    -0.09000
C3104       C  0.04233151  0.56565079  0.52106229    -0.16600
H3105       H  0.95939296  0.54188378  0.51226862     0.11500
H3106       H  0.98705125  0.54469527  0.51200107     0.10800
H3107       H  0.98278552  0.59376979  0.51112129     0.10700
H3108       H  0.95469272  0.59128196  0.51045707     0.11300
H3109       H  0.03454203  0.57975289  0.48531962     0.11300
H3110       H  0.06239075  0.57879996  0.48331993     0.11300
H3111       H  0.06472207  0.56084539  0.52990600     0.11400
H3112       H  0.03666916  0.56162483  0.53146367     0.10300
C3113       C  0.93087633  0.54846004  0.50845015    -0.03600
C3114       C  0.93521987  0.53916385  0.49578254    -0.09300
C3115       C  0.93233209  0.52339004  0.49575534    -0.17000
C3116       C  0.92472237  0.51652248  0.50819500     0.25200
C3117       C  0.91902625  0.52568912  0.52012199    -0.18600
C3118       C  0.92171797  0.54153040  0.52008638    -0.07600
C3119       C  0.92368783  0.50003420  0.50913444    -0.14000
C3120       C  0.92415020  0.48622154  0.50994807    -0.13700
C3121       C  0.92598303  0.46980617  0.51069266     0.25100
C3122       C  0.92263688  0.46180553  0.52429454    -0.19100
C3123       C  0.92510660  0.44597276  0.52519213    -0.07600
C3124       C  0.93069356  0.43767260  0.51231618    -0.03700
C3125       C  0.93457136  0.44617246  0.49891755    -0.09000
C3126       C  0.93202775  0.46193657  0.49804505    -0.16600
H3127       H  0.94175380  0.54400443  0.48629613     0.11500
H3128       H  0.93658166  0.51646954  0.48629117     0.10800
H3129       H  0.91276534  0.52055308  0.52964835     0.10700
H3130       H  0.91682131  0.54805350  0.52944169     0.11300
H3131       H  0.91841788  0.46786647  0.53435473     0.11300
H3132       H  0.92313297  0.44053994  0.53621801     0.11300
H3133       H  0.93959257  0.44050145  0.48900890     0.11400
H3134       H  0.93502345  0.46803018  0.48755325     0.10300
C3135       C  0.86219113  0.61683270  0.20655526    -0.03600
C3136       C  0.85611440  0.60897098  0.21938742    -0.09300
C3137       C  0.86023731  0.61318423  0.23439356    -0.17000
C3138       C  0.87053895  0.62530010  0.23687906     0.25200
C3139       C  0.87652516  0.63337884  0.22418470    -0.18600
C3140       C  0.87233112  0.62920324  0.20907817    -0.07600
C3141       C  0.87511900  0.62903245  0.25248296    -0.14000
C3142       C  0.87876600  0.63134813  0.26576315    -0.13700
C3143       C  0.88336610  0.63380614  0.28161555     0.25100
C3144       C  0.89771916  0.64040860  0.28484525    -0.19100
C3145       C  0.90225544  0.64292021  0.30013446    -0.07600
C3146       C  0.89250156  0.63886359  0.31248052    -0.03700
C3147       C  0.87814532  0.63209469  0.30919285    -0.09000
C3148       C  0.87361174  0.62958123  0.29383512    -0.16600
H3149       H  0.84822746  0.59943633  0.21783063     0.11500
H3150       H  0.85550641  0.60685282  0.24407591     0.10800
H3151       H  0.88453326  0.64277908  0.22595278     0.10700
H3152       H  0.87720009  0.63543330  0.19940923     0.11300
H3153       H  0.90540049  0.64367687  0.27553259     0.11300
H3154       H  0.91339535  0.64813705  0.30228597     0.11300
H3155       H  0.87041180  0.62885521  0.31846125     0.11400
H3156       H  0.86248784  0.62440404  0.29149287     0.10300
C3157       C  0.88902147  0.69266607  0.36093272    -0.03600
C3158       C  0.87311561  0.69549822  0.36152410    -0.09300
C3159       C  0.86768823  0.71052903  0.36299214    -0.17000
C3160       C  0.87810543  0.72283433  0.36383837     0.25200
C3161       C  0.89393166  0.72006440  0.36314676    -0.18600
C3162       C  0.89935756  0.70510972  0.36168244    -0.07600
C3163       C  0.87275442  0.73826601  0.36613400    -0.14000
C3164       C  0.86915457  0.75126540  0.36914295    -0.13700
C3165       C  0.86561731  0.76650829  0.37441598     0.25100
C3166       C  0.86770881  0.77925753  0.36476945    -0.19100
C3167       C  0.86512082  0.79407957  0.37045729    -0.07600
C3168       C  0.86045105  0.79624866  0.38585967    -0.03700
C3169       C  0.85816775  0.78335020  0.39533719    -0.09000
C3170       C  0.86075040  0.76861844  0.38965798    -0.16600
H3171       H  0.86491675  0.68611890  0.36095596     0.11500
H3172       H  0.85540553  0.71253635  0.36361519     0.10800
H3173       H  0.90210245  0.72946708  0.36389571     0.10700
H3174       H  0.91167555  0.70328343  0.36125749     0.11300
H3175       H  0.87154671  0.77776142  0.35295939     0.11300
H3176       H  0.86696933  0.80381554  0.36291581     0.11300
H3177       H  0.85458947  0.78464829  0.40724996     0.11400
H3178       H  0.85917177  0.75886564  0.39725244     0.10300
C3179       C  0.93075616  0.57277187  0.49364713    -0.03600
C3180       C  0.91478657  0.57359672  0.49055641    -0.09300
C3181       C  0.90926327  0.57989240  0.47672130    -0.17000
C3182       C  0.91955104  0.58504069  0.46537581     0.25200
C3183       C  0.93536006  0.58355762  0.46784527    -0.18600
C3184       C  0.94090752  0.57738849  0.48165113    -0.07600
C3185       C  0.91406937  0.59202803  0.45125241    -0.14000
C3186       C  0.91041018  0.59853863  0.43946872    -0.13700
C3187       C  0.90713315  0.60719432  0.42559252     0.25100
C3188       C  0.90272449  0.59978071  0.41189013    -0.19100
C3189       C  0.90075351  0.60820739  0.39821876    -0.07600
C3190       C  0.90316414  0.62416678  0.39809546    -0.03700
C3191       C  0.90707954  0.63155204  0.41201978    -0.09000
C3192       C  0.90909237  0.62313086  0.42561702    -0.16600
H3193       H  0.90656274  0.56955032  0.49905221     0.11500
H3194       H  0.89696037  0.58075350  0.47489785     0.10800
H3195       H  0.94347415  0.58714829  0.45903069     0.10700
H3196       H  0.95321414  0.57599642  0.48252373     0.11300
H3197       H  0.90117365  0.58745571  0.41168031     0.11300
H3198       H  0.89778015  0.60220073  0.38767430     0.11300
H3199       H  0.90910083  0.64380759  0.41230356     0.11400
H3200       H  0.91253707  0.62903096  0.43608863     0.10300
C3201       C  0.12803786  0.63961385  0.30879647    -0.03600
C3202       C  0.14253504  0.63304990  0.30598284    -0.09300
C3203       C  0.14703850  0.62922338  0.29086324    -0.17000
C3204       C  0.13712322  0.63189185  0.27834629     0.25200
C3205       C  0.12270641  0.63846003  0.28110617    -0.18600
C3206       C  0.11821155  0.64229855  0.29615561    -0.07600
C3207       C  0.14161486  0.62798048  0.26267100    -0.14000
C3208       C  0.14491505  0.62493226  0.24939726    -0.13700
C3209       C  0.14869529  0.62134111  0.23345529     0.25100
C3210       C  0.14056790  0.62812463  0.22124403    -0.19100
C3211       C  0.14418943  0.62456667  0.20583263    -0.07600
C3212       C  0.15595946  0.61409490  0.20239939    -0.03700
C3213       C  0.16407905  0.60737283  0.21472247    -0.09000
C3214       C  0.16049952  0.61098645  0.23008655    -0.16600
H3215       H  0.15036671  0.63087120  0.31545258     0.11500
H3216       H  0.15824296  0.62417283  0.28894549     0.10800
H3217       H  0.11489921  0.64061868  0.27160111     0.10700
H3218       H  0.10697788  0.64733993  0.29789909     0.11300
H3219       H  0.13138575  0.63613657  0.22363260     0.11300
H3220       H  0.13767995  0.62986477  0.19662163     0.11300
H3221       H  0.17320638  0.59926171  0.21248697     0.11400
H3222       H  0.16691170  0.60563881  0.23934674     0.10300
C3223       C  0.12973258  0.69541677  0.35818957    -0.03600
C3224       C  0.14537014  0.69855929  0.36105478    -0.09300
C3225       C  0.15038149  0.71366659  0.36353010    -0.17000
C3226       C  0.13980974  0.72574691  0.36321613     0.25200
C3227       C  0.12424175  0.72266216  0.36039772    -0.18600
C3228       C  0.11923953  0.70763158  0.35785862    -0.07600
C3229       C  0.14469329  0.74127534  0.36625880    -0.14000
C3230       C  0.14788374  0.75436193  0.36953208    -0.13700
C3231       C  0.15083868  0.76977578  0.37479165     0.25100
C3232       C  0.15130443  0.78209470  0.36439409    -0.19100
C3233       C  0.15353512  0.79708994  0.36984470    -0.07600
C3234       C  0.15524816  0.79986648  0.38575526    -0.03700
C3235       C  0.15489181  0.78739849  0.39604178    -0.09000
C3236       C  0.15270667  0.77249387  0.39059620    -0.16600
H3237       H  0.15367978  0.68936019  0.36142149     0.11500
H3238       H  0.16245311  0.71590709  0.36579706     0.10800
H3239       H  0.11593235  0.73187913  0.36025986     0.10700
H3240       H  0.10710426  0.70555239  0.35580839     0.11300
H3241       H  0.14981696  0.78012812  0.35212628     0.11300
H3242       H  0.15379830  0.80648346  0.36167698     0.11300
H3243       H  0.15623570  0.78916133  0.40835493     0.11400
H3244       H  0.15232720  0.76308362  0.39875514     0.10300
C3245       C  0.95418083  0.64662493  0.35354600    -0.03600
C3246       C  0.96336802  0.65877968  0.35900063    -0.09300
C3247       C  0.97937667  0.65810967  0.35777779    -0.17000
C3248       C  0.98635733  0.64534485  0.35101918     0.25200
C3249       C  0.97728017  0.63333814  0.34525662    -0.18600
C3250       C  0.96125048  0.63395375  0.34653757    -0.07600
C3251       C  0.00284768  0.64442830  0.35052095    -0.14000
C3252       C  0.01669892  0.64421931  0.35082932    -0.13700
C3253       C  0.03319544  0.64487409  0.35172790     0.25100
C3254       C  0.04214377  0.63326960  0.34517617    -0.19100
C3255       C  0.05821174  0.63425063  0.34571818    -0.07600
C3256       C  0.06544010  0.64691529  0.35272440    -0.03700
C3257       C  0.05636145  0.65839082  0.35947962    -0.09000
C3258       C  0.04032551  0.65734161  0.35901465    -0.16600
H3259       H  0.95819269  0.66870560  0.36438242     0.11500
H3260       H  0.98631779  0.66746478  0.36225767     0.10800
H3261       H  0.98259146  0.62343793  0.33995359     0.10700
H3262       H  0.95439861  0.62452460  0.34209875     0.11300
H3263       H  0.03671348  0.62355709  0.33954089     0.11300
H3264       H  0.06496958  0.62525941  0.34044674     0.11300
H3265       H  0.06165725  0.66820490  0.36505573     0.11400
H3266       H  0.03348588  0.66633560  0.36419212     0.10300
C3267       C  0.11625475  0.62755539  0.39464513    -0.03600
C3268       C  0.11743293  0.61149043  0.39522513    -0.09300
C3269       C  0.11561167  0.60367339  0.40929789    -0.17000
C3270       C  0.11261031  0.61181492  0.42294702     0.25200
C3271       C  0.11181013  0.62782029  0.42247262    -0.18600
C3272       C  0.11361984  0.63562397  0.40847154    -0.07600
C3273       C  0.10965568  0.60388465  0.43734349    -0.14000
C3274       C  0.10645920  0.59790308  0.44955877    -0.13700
C3275       C  0.10189257  0.59114696  0.46414300     0.25100
C3276       C  0.09322770  0.59960222  0.47474044    -0.19100
C3277       C  0.08811399  0.59284072  0.48849894    -0.07600
C3278       C  0.09109517  0.57726263  0.49181581    -0.03700
C3279       C  0.10079646  0.56925659  0.48146067    -0.09000
C3280       C  0.10590433  0.57606068  0.46770985    -0.16600
H3281       H  0.11933942  0.60496259  0.38476258     0.11500
H3282       H  0.11622686  0.59127892  0.40947236     0.10800
H3283       H  0.10946152  0.63427715  0.43289763     0.10700
H3284       H  0.11255966  0.64798452  0.40841559     0.11300
H3285       H  0.09022790  0.61138643  0.47228092     0.11300
H3286       H  0.08123756  0.59962217  0.49635496     0.11300
H3287       H  0.10455947  0.55771699  0.48379494     0.11400
H3288       H  0.11293662  0.56948648  0.45980333     0.10300
C3289       C  0.89467139  0.63737713  0.70809805    -0.03600
C3290       C  0.88211348  0.62777345  0.71163736    -0.09300
C3291       C  0.87831738  0.62463409  0.72708386    -0.17000
C3292       C  0.88699807  0.63107432  0.73914792     0.25200
C3293       C  0.89946561  0.64068317  0.73567494    -0.18600
C3294       C  0.90327892  0.64380375  0.72029955    -0.07600
C3295       C  0.88337183  0.62761067  0.75507108    -0.14000
C3296       C  0.88057543  0.62432471  0.76835429    -0.13700
C3297       C  0.87709631  0.61948157  0.78393965     0.25100
C3298       C  0.87712059  0.62999785  0.79620392    -0.19100
C3299       C  0.87324850  0.62518133  0.81118375    -0.07600
C3300       C  0.86927327  0.60979274  0.81403946    -0.03700
C3301       C  0.86957200  0.59929025  0.80170844    -0.09000
C3302       C  0.87344893  0.60410493  0.78679982    -0.16600
H3303       H  0.87531020  0.62264549  0.70249456     0.11500
H3304       H  0.86866382  0.61713012  0.72961447     0.10800
H3305       H  0.90630552  0.64571161  0.74485793     0.10700
H3306       H  0.91302779  0.65124300  0.71796588     0.11300
H3307       H  0.87995535  0.64193156  0.79416266     0.11300
H3308       H  0.87309353  0.63351801  0.82045324     0.11300
H3309       H  0.86658028  0.58736283  0.80353789     0.11400
H3310       H  0.87342428  0.59584232  0.77745030     0.10300
C3311       C  0.89072037  0.69117334  0.65728198    -0.03600
C3312       C  0.90102655  0.70366260  0.65696214    -0.09300
C3313       C  0.89570616  0.71852223  0.65436951    -0.17000
C3314       C  0.88000378  0.72119189  0.65208138     0.25200
C3315       C  0.86958558  0.70885855  0.65259147    -0.18600
C3316       C  0.87491032  0.69391834  0.65519054    -0.07600
C3317       C  0.87490303  0.73653561  0.64859086    -0.14000
C3318       C  0.87196302  0.74957732  0.64497705    -0.13700
C3319       C  0.86971849  0.76510716  0.63969193     0.25100
C3320       C  0.87376109  0.76903789  0.62454661    -0.19100
C3321       C  0.87183653  0.78404518  0.61928000    -0.07600
C3322       C  0.86589597  0.79541032  0.62911355    -0.03700
C3323       C  0.86202516  0.79146620  0.64437920    -0.09000
C3324       C  0.86388816  0.77637655  0.64962156    -0.16600
H3325       H  0.91326415  0.70193245  0.65854086     0.11500
H3326       H  0.90389520  0.72792919  0.65395559     0.10800
H3327       H  0.85740073  0.71075678  0.65079801     0.10700
H3328       H  0.86671462  0.68452240  0.65540360     0.11300
H3329       H  0.87838687  0.76047924  0.61677699     0.11300
H3330       H  0.87496623  0.78674823  0.60747535     0.11300
H3331       H  0.85737315  0.79997874  0.65217105     0.11400
H3332       H  0.86077514  0.77350459  0.66139180     0.10300
C3333       C  0.90667550  0.62596753  0.62046421    -0.03600
C3334       C  0.91427355  0.63329999  0.60811837    -0.09300
C3335       C  0.91639843  0.62579099  0.59401715    -0.17000
C3336       C  0.91093719  0.61082515  0.59193140     0.25200
C3337       C  0.90319323  0.60344367  0.60409437    -0.18600
C3338       C  0.90109309  0.61095539  0.61830000    -0.07600
C3339       C  0.91380281  0.60302463  0.57746273    -0.14000
C3340       C  0.91700963  0.59681055  0.56538587    -0.13700
C3341       C  0.92162200  0.58922346  0.55126623     0.25100
C3342       C  0.93083521  0.57617843  0.55197523    -0.19100
C3343       C  0.93544753  0.56879276  0.53842364    -0.07600
C3344       C  0.93067764  0.57398743  0.52368881    -0.03700
C3345       C  0.92193683  0.58764350  0.52320205    -0.09000
C3346       C  0.91733630  0.59502731  0.53683198    -0.16600
H3347       H  0.91888104  0.64478394  0.60944866     0.11500
H3348       H  0.92249386  0.63161449  0.58478609     0.10800
H3349       H  0.89897153  0.59182331  0.60267321     0.10700
H3350       H  0.89534583  0.60496520  0.62763353     0.11300
H3351       H  0.93453050  0.57171224  0.56303854     0.11300
H3352       H  0.94269999  0.55878384  0.53941619     0.11300
H3353       H  0.91884285  0.59301128  0.51242999     0.11400
H3354       H  0.91055945  0.60538784  0.53608798     0.10300
C3355       C  0.12567095  0.64054005  0.70472315    -0.03600
C3356       C  0.11814210  0.64822703  0.71684963    -0.09300
C3357       C  0.12197911  0.64533062  0.73225640    -0.17000
C3358       C  0.13337365  0.63465694  0.73586929     0.25200
C3359       C  0.14114858  0.62710879  0.72386884    -0.18600
C3360       C  0.13735937  0.63006130  0.70837197    -0.07600
C3361       C  0.13669605  0.63120922  0.75188208    -0.14000
C3362       C  0.13925259  0.62805479  0.76525592    -0.13700
C3363       C  0.14290082  0.62349173  0.78090428     0.25100
C3364       C  0.15465977  0.61289886  0.78338072    -0.19100
C3365       C  0.15840066  0.60827449  0.79835616    -0.07600
C3366       C  0.15050093  0.61421007  0.81121010    -0.03700
C3367       C  0.13864207  0.62484535  0.80871498    -0.09000
C3368       C  0.13484077  0.62943228  0.79362214    -0.16600
H3369       H  0.10915634  0.65644076  0.71443281     0.11500
H3370       H  0.11589857  0.65129117  0.74136871     0.10800
H3371       H  0.15000838  0.61881772  0.72649099     0.10700
H3372       H  0.14335519  0.62398698  0.69929074     0.11300
H3373       H  0.16097177  0.60818279  0.77369912     0.11300
H3374       H  0.16757872  0.60005928  0.79986947     0.11300
H3375       H  0.13230016  0.62952940  0.81838141     0.11400
H3376       H  0.12565436  0.63759698  0.79187944     0.10300
C3377       C  0.12773160  0.69383405  0.65459740    -0.03600
C3378       C  0.11748051  0.70622167  0.65558605    -0.09300
C3379       C  0.12274963  0.72124116  0.65349548    -0.17000
C3380       C  0.13831528  0.72408708  0.65038466     0.25200
C3381       C  0.14863776  0.71183582  0.64954730    -0.18600
C3382       C  0.14338866  0.69678278  0.65167723    -0.07600
C3383       C  0.14348695  0.73950740  0.64735451    -0.14000
C3384       C  0.14725112  0.75240158  0.64396139    -0.13700
C3385       C  0.15108998  0.76761592  0.63873086     0.25100
C3386       C  0.16003584  0.76952979  0.62541930    -0.19100
C3387       C  0.16275461  0.78419107  0.61950246    -0.07600
C3388       C  0.15663141  0.79714879  0.62688971    -0.03700
C3389       C  0.14801281  0.79520046  0.64049806    -0.09000
C3390       C  0.14519097  0.78048676  0.64634061    -0.16600
H3391       H  0.10536044  0.70429533  0.65786202     0.11500
H3392       H  0.11464526  0.73061836  0.65411297     0.10800
H3393       H  0.16069979  0.71390114  0.64706926     0.10700
H3394       H  0.15152163  0.68745567  0.65085638     0.11300
H3395       H  0.16464359  0.75966205  0.61942470     0.11300
H3396       H  0.16951012  0.78538255  0.60904882     0.11300
H3397       H  0.14313396  0.80499913  0.64637430     0.11400
H3398       H  0.13818263  0.77913363  0.65661001     0.10300
C3399       C  0.06468179  0.63988061  0.66310393    -0.03600
C3400       C  0.05418844  0.65193768  0.66488705    -0.09300
C3401       C  0.03842796  0.64892437  0.66562170    -0.17000
C3402       C  0.03296756  0.63385109  0.66455560     0.25200
C3403       C  0.04332158  0.62174172  0.66284153    -0.18600
C3404       C  0.05914621  0.62473646  0.66215352    -0.07600
C3405       C  0.01668404  0.63108825  0.66506388    -0.14000
C3406       C  0.00284486  0.63082293  0.66545067    -0.13700
C3407       C  0.98652323  0.63317366  0.66578100     0.25100
C3408       C  0.97623093  0.62081135  0.66681884    -0.19100
C3409       C  0.96035208  0.62347972  0.66692866    -0.07600
C3410       C  0.95472515  0.63853728  0.66599998    -0.03700
C3411       C  0.96517595  0.65083237  0.66510190    -0.09000
C3412       C  0.98096395  0.64815272  0.66498325    -0.16600
H3413       H  0.05815692  0.66370151  0.66568094     0.11500
H3414       H  0.03048157  0.65836803  0.66694717     0.10800
H3415       H  0.03917437  0.61004055  0.66197829     0.10700
H3416       H  0.06702284  0.61525974  0.66074467     0.11300
H3417       H  0.98045842  0.60917174  0.66745435     0.11300
H3418       H  0.95250408  0.61381429  0.66760120     0.11300
H3419       H  0.96115210  0.66253419  0.66434695     0.11400
H3420       H  0.98885779  0.65778527  0.66418596     0.10300
C3421       C  0.11607286  0.62884783  0.61687776    -0.03600
C3422       C  0.11315923  0.63739421  0.60341389    -0.09300
C3423       C  0.11262571  0.63024826  0.58893596    -0.17000
C3424       C  0.11492827  0.61442951  0.58764178     0.25200
C3425       C  0.11804142  0.60584580  0.60096933    -0.18600
C3426       C  0.11867316  0.61300916  0.61548871    -0.07600
C3427       C  0.11306502  0.60698080  0.57279753    -0.14000
C3428       C  0.11002427  0.60110587  0.56048441    -0.13700
C3429       C  0.10416211  0.59439302  0.54634939     0.25100
C3430       C  0.11353998  0.58577780  0.53648004    -0.19100
C3431       C  0.10718450  0.57849803  0.52345195    -0.07600
C3432       C  0.09119810  0.57914134  0.52038749    -0.03700
C3433       C  0.08232288  0.58910520  0.52972101    -0.09000
C3434       C  0.08866523  0.59634691  0.54263174    -0.16600
H3435       H  0.11103264  0.64959367  0.60410232     0.11500
H3436       H  0.11008760  0.63702938  0.57877751     0.10800
H3437       H  0.11968289  0.59357269  0.60018331     0.10700
H3438       H  0.12076004  0.60610562  0.62565915     0.11300
H3439       H  0.12568177  0.58446991  0.53897383     0.11300
H3440       H  0.11462347  0.57175209  0.51609901     0.11300
H3441       H  0.07039555  0.59148744  0.52722029     0.11400
H3442       H  0.08136896  0.60341350  0.54983813     0.10300
C3443       C  0.51231592  0.06656106  0.56429819    -0.03600
C3444       C  0.51154287  0.08170582  0.55851426    -0.09300
C3445       C  0.51197451  0.08462383  0.54262398    -0.17000
C3446       C  0.51366035  0.07252100  0.53219144     0.25200
C3447       C  0.51536466  0.05760149  0.53769447    -0.18600
C3448       C  0.51493057  0.05464341  0.55351257    -0.07600
C3449       C  0.51350316  0.07512274  0.51578710    -0.14000
C3450       C  0.51311519  0.07554098  0.50187689    -0.13700
C3451       C  0.51253659  0.07403693  0.48533776     0.25100
C3452       C  0.52452531  0.06671692  0.47761403    -0.19100
C3453       C  0.52348190  0.06395716  0.46178470    -0.07600
C3454       C  0.51049436  0.06865775  0.45313841    -0.03700
C3455       C  0.49837030  0.07586596  0.46124039    -0.09000
C3456       C  0.49948774  0.07863052  0.47713534    -0.16600
H3457       H  0.51025133  0.09126416  0.56638626     0.11500
H3458       H  0.51090302  0.09628588  0.53849402     0.10800
H3459       H  0.51707964  0.04818598  0.52971623     0.10700
H3460       H  0.51699624  0.04298225  0.55705888     0.11300
H3461       H  0.53457689  0.06284864  0.48388467     0.11300
H3462       H  0.53290019  0.05808087  0.45616147     0.11300
H3463       H  0.48776774  0.07902670  0.45562147     0.11400
H3464       H  0.48996497  0.08399013  0.48310805     0.10300
C3465       C  0.51042090  0.93528618  0.58470852    -0.03600
C3466       C  0.52307463  0.94373261  0.57876099    -0.09300
C3467       C  0.52411424  0.95960425  0.58066471    -0.17000
C3468       C  0.51273657  0.96741327  0.58885804     0.25200
C3469       C  0.50064934  0.95920032  0.59564642    -0.18600
C3470       C  0.49960612  0.94330009  0.59384008    -0.07600
C3471       C  0.51313834  0.98389041  0.58987129    -0.14000
C3472       C  0.51287182  0.99771221  0.59009410    -0.13700
C3473       C  0.51204002  0.01418671  0.58950045     0.25100
C3474       C  0.52347496  0.02321835  0.59636787    -0.19100
C3475       C  0.52313046  0.03917979  0.59490320    -0.07600
C3476       C  0.51164838  0.04642990  0.58590652    -0.03700
C3477       C  0.49949843  0.03714148  0.58024093    -0.09000
C3478       C  0.49983442  0.02121379  0.58180374    -0.16600
H3479       H  0.53191349  0.93802343  0.57210889     0.11500
H3480       H  0.53364932  0.96580741  0.57549700     0.10800
H3481       H  0.49192364  0.96511626  0.60227704     0.10700
H3482       H  0.49026915  0.93750846  0.59967924     0.11300
H3483       H  0.53275766  0.01791845  0.60275506     0.11300
H3484       H  0.53202866  0.04561509  0.60076041     0.11300
H3485       H  0.49013013  0.04221336  0.57380648     0.11400
H3486       H  0.49072906  0.01435772  0.57668731     0.10300
C3487       C  0.50832338  0.91470325  0.56368708    -0.03600
C3488       C  0.50581946  0.92654599  0.55278626    -0.09300
C3489       C  0.50505440  0.92344009  0.53699881    -0.17000
C3490       C  0.50636303  0.90844470  0.53158117     0.25200
C3491       C  0.50785316  0.89641036  0.54214729    -0.18600
C3492       C  0.50850105  0.89947898  0.55804285    -0.07600
C3493       C  0.50647271  0.90575642  0.51513294    -0.14000
C3494       C  0.50710036  0.90534619  0.50119748    -0.13700
C3495       C  0.50843923  0.90678941  0.48464217     0.25100
C3496       C  0.52192419  0.91284163  0.47823383    -0.19100
C3497       C  0.52287121  0.91564842  0.46237278    -0.07600
C3498       C  0.51045793  0.91217352  0.45235934    -0.03700
C3499       C  0.49684990  0.90613951  0.45912038    -0.09000
C3500       C  0.49593590  0.90339822  0.47503909    -0.16600
H3501       H  0.50416010  0.93831042  0.55623171     0.11500
H3502       H  0.50347717  0.93282657  0.52896681     0.10800
H3503       H  0.50862558  0.88468567  0.53811820     0.10700
H3504       H  0.50961609  0.88997608  0.56600013     0.11300
H3505       H  0.53160240  0.91580268  0.48556820     0.11300
H3506       H  0.53330898  0.92080859  0.45785169     0.11300
H3507       H  0.48654827  0.90414681  0.45242770     0.11400
H3508       H  0.48527400  0.89907795  0.47991858     0.10300
C3509       C  0.31190114  0.87476443  0.65180527    -0.03600
C3510       C  0.29979214  0.88405491  0.65710458    -0.09300
C3511       C  0.28449904  0.88041080  0.65356925    -0.17000
C3512       C  0.28106397  0.86742867  0.64470415     0.25200
C3513       C  0.29303100  0.85801721  0.63950843    -0.18600
C3514       C  0.30837380  0.86165630  0.64303387    -0.07600
C3515       C  0.26529791  0.86397222  0.64070101    -0.14000
C3516       C  0.25214437  0.86119581  0.63708481    -0.13700
C3517       C  0.23660953  0.85763933  0.63233739     0.25100
C3518       C  0.23391972  0.84555375  0.62204351    -0.19100
C3519       C  0.21892235  0.84204059  0.61732383    -0.07600
C3520       C  0.20636491  0.85054707  0.62287844    -0.03700
C3521       C  0.20912679  0.86269301  0.63319672    -0.09000
C3522       C  0.22418089  0.86622650  0.63788285    -0.16600
H3523       H  0.30214409  0.89422959  0.66389568     0.11500
H3524       H  0.27536443  0.88778740  0.65765511     0.10800
H3525       H  0.29051112  0.84793287  0.63263414     0.10700
H3526       H  0.31745925  0.85430099  0.63882550     0.11300
H3527       H  0.24342543  0.83884674  0.61764334     0.11300
H3528       H  0.21715609  0.83264429  0.60932688     0.11300
H3529       H  0.19967932  0.86948268  0.63757107     0.11400
H3530       H  0.22612478  0.87564808  0.64581333     0.10300
C3531       C  0.35929541  0.86921691  0.70579674    -0.03600
C3532       C  0.36033504  0.87915571  0.71854356    -0.09300
C3533       C  0.36155327  0.87332531  0.73349921    -0.17000
C3534       C  0.36170882  0.85749158  0.73597463     0.25200
C3535       C  0.36038962  0.84746255  0.72338281    -0.18600
C3536       C  0.35915975  0.85329865  0.70834667    -0.07600
C3537       C  0.36416236  0.85181012  0.75139444    -0.14000
C3538       C  0.36743573  0.84858816  0.76453766    -0.13700
C3539       C  0.37290630  0.84629774  0.78007140     0.25100
C3540       C  0.38862056  0.84395091  0.78257811    -0.19100
C3541       C  0.39434352  0.84286802  0.79759955    -0.07600
C3542       C  0.38442382  0.84410724  0.81038165    -0.03700
C3543       C  0.36860247  0.84627571  0.80781770    -0.09000
C3544       C  0.36288117  0.84740800  0.79271466    -0.16600
H3545       H  0.36041418  0.89146551  0.71694648     0.11500
H3546       H  0.36263717  0.88119283  0.74313405     0.10800
H3547       H  0.36055611  0.83517614  0.72515696     0.10700
H3548       H  0.35829546  0.84539638  0.69873158     0.11300
H3549       H  0.39650751  0.84319179  0.77290840     0.11300
H3550       H  0.40658161  0.84115750  0.79920346     0.11300
H3551       H  0.36071919  0.84725951  0.81745584     0.11400
H3552       H  0.35070611  0.84935714  0.79090814     0.10300
C3553       C  0.39791064  0.88275455  0.63774094    -0.03600
C3554       C  0.41195670  0.88341795  0.64582593    -0.09300
C3555       C  0.42592684  0.88504081  0.63789791    -0.17000
C3556       C  0.42612141  0.88606047  0.62175505     0.25200
C3557       C  0.41223070  0.88482231  0.61356263    -0.18600
C3558       C  0.39821523  0.88312553  0.62149250    -0.07600
C3559       C  0.44043455  0.88937154  0.61379079    -0.14000
C3560       C  0.45241894  0.89305022  0.60761904    -0.13700
C3561       C  0.46663046  0.89837827  0.60062650     0.25100
C3562       C  0.48084511  0.89274868  0.60561154    -0.19100
C3563       C  0.49462139  0.89846796  0.59934815    -0.07600
C3564       C  0.49453858  0.91041794  0.58827618    -0.03700
C3565       C  0.48000094  0.91533711  0.58284754    -0.09000
C3566       C  0.46628089  0.90951006  0.58902962    -0.16600
H3567       H  0.41211270  0.88316248  0.65833319     0.11500
H3568       H  0.43654709  0.88597089  0.64440615     0.10800
H3569       H  0.41218083  0.88561710  0.60107410     0.10700
H3570       H  0.38759125  0.88272834  0.61495378     0.11300
H3571       H  0.48130148  0.88391863  0.61439241     0.11300
H3572       H  0.50519211  0.89334301  0.60328351     0.11300
H3573       H  0.47929262  0.92410560  0.57403317     0.11400
H3574       H  0.45537997  0.91387053  0.58489002     0.10300
C3575       C  0.31075733  0.10610228  0.65163007    -0.03600
C3576       C  0.29852353  0.09677066  0.65683517    -0.09300
C3577       C  0.28320331  0.10121623  0.65471570    -0.17000
C3578       C  0.27979843  0.11508470  0.64738750     0.25200
C3579       C  0.29190987  0.12454414  0.64231243    -0.18600
C3580       C  0.30728958  0.12009388  0.64441423    -0.07600
C3581       C  0.26391044  0.11936258  0.64472893    -0.14000
C3582       C  0.25068324  0.12279884  0.64200283    -0.13700
C3583       C  0.23514277  0.12716046  0.63784293     0.25100
C3584       C  0.23262979  0.13550603  0.62428112    -0.19100
C3585       C  0.21771247  0.13978726  0.62004340    -0.07600
C3586       C  0.20496873  0.13575147  0.62926632    -0.03700
C3587       C  0.20752452  0.12734401  0.64288444    -0.09000
C3588       C  0.22252396  0.12309415  0.64714863    -0.16600
H3589       H  0.30078960  0.08595753  0.66251055     0.11500
H3590       H  0.27400684  0.09376904  0.65870897     0.10800
H3591       H  0.28946634  0.13531868  0.63663237     0.10700
H3592       H  0.31644376  0.12756130  0.64038705     0.11300
H3593       H  0.24222642  0.13869979  0.61693468     0.11300
H3594       H  0.21614711  0.14618786  0.60944900     0.11300
H3595       H  0.19794955  0.12404453  0.65019825     0.11400
H3596       H  0.22426707  0.11661430  0.65766819     0.10300
C3597       C  0.38791835  0.14095172  0.80769195    -0.03600
C3598       C  0.39832877  0.14206426  0.79527827    -0.09300
C3599       C  0.39342411  0.13937606  0.78013987    -0.17000
C3600       C  0.37804597  0.13555411  0.77715641     0.25200
C3601       C  0.36752719  0.13464395  0.78941219    -0.18600
C3602       C  0.37242359  0.13734926  0.80460929    -0.07600
C3603       C  0.37333904  0.13184430  0.76161569    -0.14000
C3604       C  0.37010070  0.12791229  0.74863620    -0.13700
C3605       C  0.36694653  0.12207437  0.73336903     0.25100
C3606       C  0.36616888  0.10622914  0.73099525    -0.19100
C3607       C  0.36368083  0.10035453  0.71618819    -0.07600
C3608       C  0.36197882  0.11025661  0.70349931    -0.03700
C3609       C  0.36261251  0.12617651  0.70595520    -0.09000
C3610       C  0.36508964  0.13205120  0.72082858    -0.16600
H3611       H  0.41033741  0.14482347  0.79728306     0.11500
H3612       H  0.40168875  0.14005437  0.77078183     0.10800
H3613       H  0.35560368  0.13162653  0.78724979     0.10700
H3614       H  0.36417050  0.13640533  0.81394324     0.11300
H3615       H  0.36762065  0.09839334  0.74058641     0.11300
H3616       H  0.36322916  0.08804105  0.71465470     0.11300
H3617       H  0.36129134  0.13405351  0.69638958     0.11400
H3618       H  0.36568824  0.14434157  0.72252150     0.10300
C3619       C  0.35214857  0.04474584  0.65524479    -0.03600
C3620       C  0.35086447  0.03559946  0.66853401    -0.09300
C3621       C  0.34956572  0.01972625  0.66723665    -0.17000
C3622       C  0.34957143  0.01281444  0.65266774     0.25200
C3623       C  0.35085922  0.02180931  0.63934280    -0.18600
C3624       C  0.35211335  0.03774389  0.64061618    -0.07600
C3625       C  0.34877829  0.99644242  0.65161360    -0.14000
C3626       C  0.34884343  0.98267544  0.65199118    -0.13700
C3627       C  0.34994657  0.96638412  0.65366992     0.25100
C3628       C  0.34411354  0.95660788  0.64225283    -0.19100
C3629       C  0.34572995  0.94076149  0.64378431    -0.07600
C3630       C  0.35316724  0.93459602  0.65677749    -0.03700
C3631       C  0.35880292  0.94449618  0.66827968    -0.09000
C3632       C  0.35722182  0.96031743  0.66670333    -0.16600
H3633       H  0.35085224  0.04071285  0.67993750     0.11500
H3634       H  0.34865302  0.01282851  0.67760805     0.10800
H3635       H  0.35097337  0.01651643  0.62801903     0.10700
H3636       H  0.35313212  0.04456214  0.63021162     0.11300
H3637       H  0.33842787  0.96122585  0.63214916     0.11300
H3638       H  0.34116669  0.93334358  0.63483425     0.11300
H3639       H  0.36451355  0.94001912  0.67842851     0.11400
H3640       H  0.36175813  0.96782752  0.67560027     0.10300
C3641       C  0.39788648  0.09456851  0.63739940    -0.03600
C3642       C  0.41146215  0.09335072  0.64619257    -0.09300
C3643       C  0.42573444  0.09120609  0.63901096    -0.17000
C3644       C  0.42674155  0.09020397  0.62290418     0.25200
C3645       C  0.41333718  0.09183810  0.61400015    -0.18600
C3646       C  0.39900186  0.09403698  0.62119087    -0.07600
C3647       C  0.44142155  0.08684054  0.61569839    -0.14000
C3648       C  0.45373413  0.08350334  0.61005215    -0.13700
C3649       C  0.46828138  0.07912574  0.60314843     0.25100
C3650       C  0.47002745  0.07941653  0.58711040    -0.19100
C3651       C  0.48386569  0.07485562  0.58026111    -0.07600
C3652       C  0.49659369  0.07010855  0.58930772    -0.03700
C3653       C  0.49437835  0.06937322  0.60548895    -0.09000
C3654       C  0.48051314  0.07403716  0.61232008    -0.16600
H3655       H  0.41100735  0.09366203  0.65869158     0.11500
H3656       H  0.43595511  0.08997388  0.64606857     0.10800
H3657       H  0.41390942  0.09107113  0.60152280     0.10700
H3658       H  0.38875447  0.09480939  0.61411552     0.11300
H3659       H  0.46054362  0.08292137  0.57981266     0.11300
H3660       H  0.48414733  0.07457672  0.56780140     0.11300
H3661       H  0.50347451  0.06512683  0.61286654     0.11400
H3662       H  0.47927337  0.07346261  0.62475885     0.10300
C3663       C  0.70655354  0.87185540  0.65212352    -0.03600
C3664       C  0.70964830  0.86203210  0.63963328    -0.09300
C3665       C  0.72491628  0.85837674  0.63578043    -0.17000
C3666       C  0.73721981  0.86443219  0.64441682     0.25200
C3667       C  0.73413831  0.87403834  0.65696394    -0.18600
C3668       C  0.71897174  0.87773658  0.66076847    -0.07600
C3669       C  0.75303336  0.86098747  0.64048580    -0.14000
C3670       C  0.76640337  0.85838865  0.63755292    -0.13700
C3671       C  0.78228926  0.85502807  0.63381800     0.25100
C3672       C  0.79445176  0.86272044  0.64125281    -0.19100
C3673       C  0.80981005  0.85942760  0.63740424    -0.07600
C3674       C  0.81317501  0.84841203  0.62603737    -0.03700
C3675       C  0.80087707  0.84070828  0.61874212    -0.09000
C3676       C  0.78560503  0.84398601  0.62260138    -0.16600
H3677       H  0.70032057  0.85741615  0.63272158     0.11500
H3678       H  0.72712493  0.85092982  0.62602205     0.10800
H3679       H  0.74349075  0.87878770  0.66376414     0.10700
H3680       H  0.71697396  0.88532650  0.67045873     0.11300
H3681       H  0.79206934  0.87129904  0.64996854     0.11300
H3682       H  0.81901753  0.86556635  0.64319346     0.11300
H3683       H  0.80305458  0.83216216  0.60994420     0.11400
H3684       H  0.77636245  0.83792992  0.61676288     0.10300
C3685       C  0.65644899  0.86917745  0.70666637    -0.03600
C3686       C  0.65709351  0.85335361  0.70966555    -0.09300
C3687       C  0.65562816  0.84784653  0.72482936    -0.17000
C3688       C  0.65352553  0.85809796  0.73712465     0.25200
C3689       C  0.65290663  0.87384158  0.73418223    -0.18600
C3690       C  0.65436548  0.87934472  0.71910116    -0.07600
C3691       C  0.65116817  0.85264013  0.75268794    -0.14000
C3692       C  0.64782848  0.84920301  0.76578910    -0.13700
C3693       C  0.64183676  0.84622588  0.78105054     0.25100
C3694       C  0.65160364  0.84506958  0.79390119    -0.19100
C3695       C  0.64538517  0.84295873  0.80872713    -0.07600
C3696       C  0.62934192  0.84202593  0.81080362    -0.03700
C3697       C  0.61969551  0.84306906  0.79780737    -0.09000
C3698       C  0.62589646  0.84515773  0.78308316    -0.16600
H3699       H  0.65873739  0.84527345  0.70031912     0.11500
H3700       H  0.65602000  0.83561989  0.72694213     0.10800
H3701       H  0.65116568  0.88188620  0.74355453     0.10700
H3702       H  0.65383589  0.89159351  0.71717641     0.11300
H3703       H  0.66396975  0.84595389  0.79248755     0.11300
H3704       H  0.65307410  0.84217534  0.81853827     0.11300
H3705       H  0.60729851  0.84239060  0.79902143     0.11400
H3706       H  0.61821394  0.84611375  0.77327050     0.10300
C3707       C  0.62113251  0.88560229  0.63919162    -0.03600
C3708       C  0.60719600  0.88633336  0.64743609    -0.09300
C3709       C  0.59326851  0.88873536  0.63970909    -0.17000
C3710       C  0.59304595  0.89049504  0.62363864     0.25200
C3711       C  0.60682835  0.88942580  0.61528433    -0.18600
C3712       C  0.62079082  0.88695784  0.62300227    -0.07600
C3713       C  0.57876767  0.89402612  0.61589034    -0.14000
C3714       C  0.56675533  0.89747769  0.60979151    -0.13700
C3715       C  0.55242681  0.90200276  0.60270008     0.25100
C3716       C  0.54079040  0.90861244  0.61160166    -0.19100
C3717       C  0.52704912  0.91330555  0.60467286    -0.07600
C3718       C  0.52440743  0.91127198  0.58865822    -0.03700
C3719       C  0.53657077  0.90498452  0.57981010    -0.09000
C3720       C  0.55027955  0.90025727  0.58680000    -0.16600
H3721       H  0.60710234  0.88540220  0.65991133     0.11500
H3722       H  0.58270772  0.88955045  0.64631722     0.10800
H3723       H  0.60682900  0.89081244  0.60284796     0.10700
H3724       H  0.63135646  0.88659525  0.61636940     0.11300
H3725       H  0.54238929  0.91029825  0.62389918     0.11300
H3726       H  0.51838002  0.91865899  0.61183723     0.11300
H3727       H  0.53598490  0.90413389  0.56739629     0.11400
H3728       H  0.55935632  0.89549732  0.57970716     0.10300
C3729       C  0.81208389  0.13572385  0.63383603    -0.03600
C3730       C  0.79951186  0.14351360  0.62732498    -0.09300
C3731       C  0.78441795  0.13920165  0.63089710    -0.17000
C3732       C  0.78161000  0.12702313  0.64101313     0.25200
C3733       C  0.79403861  0.11919245  0.64762092    -0.18600
C3734       C  0.80921649  0.12351980  0.64406059    -0.07600
C3735       C  0.76595026  0.12261168  0.64444336    -0.14000
C3736       C  0.75270982  0.11918100  0.64702262    -0.13700
C3737       C  0.73697013  0.11490323  0.65022295     0.25100
C3738       C  0.73359886  0.10587052  0.66313965    -0.19100
C3739       C  0.71843614  0.10138595  0.66618011    -0.07600
C3740       C  0.70639529  0.10589444  0.65634327    -0.03700
C3741       C  0.70980747  0.11510859  0.64346444    -0.09000
C3742       C  0.72503437  0.11957380  0.64041638    -0.16600
H3743       H  0.80133667  0.15292257  0.61936613     0.11500
H3744       H  0.77492460  0.14533817  0.62569843     0.10800
H3745       H  0.79200098  0.10971708  0.65545453     0.10700
H3746       H  0.81867028  0.11726213  0.64916095     0.11300
H3747       H  0.74271353  0.10220310  0.67081901     0.11300
H3748       H  0.71615098  0.09430559  0.67620310     0.11300
H3749       H  0.70075352  0.11872373  0.63569950     0.11400
H3750       H  0.72750805  0.12657812  0.63037886     0.10300
C3751       C  0.65498635  0.11046570  0.70820325    -0.03600
C3752       C  0.65186266  0.12615719  0.70999049    -0.09300
C3753       C  0.64954550  0.13232820  0.72476138    -0.17000
C3754       C  0.65043229  0.12287807  0.73782389     0.25200
C3755       C  0.65385283  0.10733942  0.73609231    -0.18600
C3756       C  0.65610428  0.10116981  0.72140899    -0.07600
C3757       C  0.64707607  0.12872166  0.75300173    -0.14000
C3758       C  0.64355340  0.13226327  0.76599419    -0.13700
C3759       C  0.63846090  0.13529150  0.78152680     0.25100
C3760       C  0.64844187  0.13316894  0.79404900    -0.19100
C3761       C  0.64315708  0.13531078  0.80918231    -0.07600
C3762       C  0.62781969  0.13960384  0.81193175    -0.03700
C3763       C  0.61792375  0.14181498  0.79927393    -0.09000
C3764       C  0.62321083  0.13964417  0.78418707    -0.16600
H3765       H  0.65102095  0.13357038  0.70000069     0.11500
H3766       H  0.64686470  0.14437854  0.72597674     0.10800
H3767       H  0.65454908  0.09991911  0.74610030     0.10700
H3768       H  0.65861784  0.08906703  0.72039553     0.11300
H3769       H  0.66024107  0.12968035  0.79212792     0.11300
H3770       H  0.65100443  0.13348224  0.81871705     0.11300
H3771       H  0.60602833  0.14503880  0.80104041     0.11400
H3772       H  0.61534598  0.14118384  0.77460304     0.10300
C3773       C  0.66921939  0.04388482  0.66024532    -0.03600
C3774       C  0.67225513  0.03757250  0.64562952    -0.09300
C3775       C  0.67429844  0.02178307  0.64396518    -0.17000
C3776       C  0.67338255  0.01220946  0.65689242     0.25200
C3777       C  0.67053158  0.01843603  0.67150411    -0.18600
C3778       C  0.66845164  0.03419267  0.67318589    -0.07600
C3779       C  0.67468654  0.99592103  0.65519429    -0.14000
C3780       C  0.67480118  0.98214737  0.65479690    -0.13700
C3781       C  0.67371917  0.96577931  0.65584247     0.25100
C3782       C  0.67251940  0.95895097  0.67040079    -0.19100
C3783       C  0.67044301  0.94315091  0.67166030    -0.07600
C3784       C  0.66953828  0.93399134  0.65834581    -0.03700
C3785       C  0.67100083  0.94087669  0.64373241    -0.09000
C3786       C  0.67305148  0.95673937  0.64249314    -0.16600
H3787       H  0.67289103  0.04481065  0.63548785     0.11500
H3788       H  0.67642615  0.01703412  0.63260189     0.10800
H3789       H  0.66974408  0.01108870  0.68156677     0.10700
H3790       H  0.66615440  0.03877519  0.68458100     0.11300
H3791       H  0.67296289  0.96587861  0.68078790     0.11300
H3792       H  0.66940896  0.93812261  0.68305250     0.11300
H3793       H  0.67037428  0.93404027  0.63330336     0.11400
H3794       H  0.67390285  0.96195889  0.63116929     0.10300
C3795       C  0.62156212  0.09343496  0.64067885    -0.03600
C3796       C  0.62078354  0.10132540  0.62653364    -0.09300
C3797       C  0.60726258  0.10090725  0.61767602    -0.17000
C3798       C  0.59439709  0.09262424  0.62288398     0.25200
C3799       C  0.59508317  0.08488319  0.63701676    -0.18600
C3800       C  0.60853707  0.08528494  0.64585296    -0.07600
C3801       C  0.58058879  0.09150598  0.61367439    -0.14000
C3802       C  0.56872419  0.08913768  0.60677254    -0.13700
C3803       C  0.55454371  0.08443292  0.59944637     0.25100
C3804       C  0.54041545  0.09039098  0.60430330    -0.19100
C3805       C  0.52655849  0.08437208  0.59852775    -0.07600
C3806       C  0.52657169  0.07187723  0.58810998    -0.03700
C3807       C  0.54102952  0.06694272  0.58244649    -0.09000
C3808       C  0.55479414  0.07297051  0.58820515    -0.16600
H3809       H  0.63067104  0.10762400  0.62223574     0.11500
H3810       H  0.60690398  0.10688580  0.60671874     0.10800
H3811       H  0.58524893  0.07837153  0.64114011     0.10700
H3812       H  0.60880693  0.07903148  0.65665283     0.11300
H3813       H  0.54008692  0.09951062  0.61279243     0.11300
H3814       H  0.51599091  0.08956764  0.60239265     0.11300
H3815       H  0.54164739  0.05782195  0.57398467     0.11400
H3816       H  0.56564075  0.06835049  0.58419811     0.10300
loop_ 
_geom_bond_atom_site_label_1 
_geom_bond_atom_site_label_2 
_geom_bond_distance 
_geom_bond_site_symmetry_2 
_ccdc_geom_bond_type 
In1           O3   2.245       .  S
In1           O4   2.231       .  S
In1          O12   2.230       .  S
In1           O6   2.264       .  S
In1           O8   2.264       .  S
In1           O9   2.222       .  S
In1          O10   2.239       .  S
In1          O13   2.264       .  S
C2            O8   1.262       .  A
C2           O10   1.259       .  A
C2         C3795   1.480       .  S
O3           C11   1.262       .  A
O4           C11   1.260       .  A
C5           O12   1.258       .  A
C5            O6   1.263       .  A
C5         C3740   1.478       .  S
C7            O9   1.258       .  A
C7           O13   1.263       .  A
C7         C3751   1.476       .  S
C11        C3773   1.472       .  S
In14         O16   2.266       .  S
In14         O17   2.225       .  S
In14         O25   2.225       .  S
In14         O19   2.281       .  S
In14         O21   2.268       .  S
In14         O22   2.233       .  S
In14         O23   2.248       .  S
In14         O26   2.249       .  S
C15          O21   1.261       .  A
C15          O23   1.258       .  A
C15        C3707   1.482       .  S
O16          C24   1.266       .  A
O17          C24   1.261       .  A
C18          O25   1.257       .  A
C18          O19   1.265       .  A
C18        C3663   1.482       .  S
C20          O22   1.259       .  A
C20          O26   1.259       .  A
C20        C3784   1.472       .  S
C24        C3685   1.481       .  S
In27         O29   2.256       .  S
In27         O30   2.227       .  S
In27         O38   2.236       .  S
In27         O32   2.285       .  S
In27         O34   2.283       .  S
In27         O35   2.225       .  S
In27         O36   2.241       .  S
In27         O39   2.244       .  S
C28          O34   1.265       .  A
C28          O36   1.258       .  A
C28        C3641   1.487       .  S
O29          C37   1.265       .  A
O30          C37   1.261       .  A
C31          O38   1.257       .  A
C31          O32   1.266       .  A
C31        C3575   1.486       .  S
C33          O35   1.261       .  A
C33          O39   1.262       .  A
C33        C3619   1.471       .  S
C37        C3608   1.478       .  S
In40         O42   2.237       .  S
In40         O43   2.235       .  S
In40         O51   2.228       .  S
In40         O45   2.268       .  S
In40         O47   2.278       .  S
In40         O48   2.229       .  S
In40         O49   2.249       .  S
In40         O52   2.258       .  S
C41          O47   1.262       .  A
C41          O49   1.258       .  A
C41        C3553   1.486       .  S
O42          C50   1.261       .  A
O43          C50   1.261       .  A
C44          O51   1.258       .  A
C44          O45   1.266       .  A
C44        C3509   1.480       .  S
C46          O48   1.260       .  A
C46          O52   1.264       .  A
C46        C3531   1.478       .  S
C50        C3630   1.471       .  S
C53        C3465   1.555       .  S
C53        C3487   1.557       .  S
C53        C3564   1.558       .  S
C53        C3718   1.558       .  S
C54        C3443   1.554       .  S
C54        C3476   1.556       .  S
C54        C3652   1.560       .  S
C54        C3806   1.555       .  S
In55         O57   2.244       .  S
In55         O58   2.227       .  S
In55         O66   2.230       .  S
In55         O60   2.287       .  S
In55         O62   2.274       .  S
In55         O63   2.232       .  S
In55         O64   2.242       .  S
In55         O67   2.255       .  S
C56          O62   1.265       .  A
C56          O64   1.259       .  A
C56        C3421   1.485       .  S
O57          C65   1.262       .  A
O58          C65   1.261       .  A
C59          O66   1.257       .  A
C59          O60   1.266       .  A
C59        C3355   1.485       .  S
C61          O63   1.260       .  A
C61          O67   1.264       .  A
C61        C3377   1.478       .  S
C65        C3399   1.471       .  S
In68         O70   2.267       .  S
In68         O71   2.232       .  S
In68         O79   2.226       .  S
In68         O73   2.279       .  S
In68         O75   2.280       .  S
In68         O76   2.222       .  S
In68         O77   2.229       .  S
In68         O80   2.244       .  S
C69          O75   1.266       .  A
C69          O77   1.258       .  A
C69        C3333   1.485       .  S
O70          C78   1.265       .  A
O71          C78   1.260       .  A
C72          O79   1.258       .  A
C72          O73   1.267       .  A
C72        C3289   1.483       .  S
C74          O76   1.262       .  A
C74          O80   1.262       .  A
C74        C3410   1.471       .  S
C78        C3311   1.482       .  S
In81         O83   2.264       .  S
In81         O84   2.230       .  S
In81         O92   2.245       .  S
In81         O86   2.283       .  S
In81         O88   2.280       .  S
In81         O89   2.234       .  S
In81         O90   2.243       .  S
In81         O93   2.246       .  S
C82          O88   1.263       .  A
C82          O90   1.257       .  A
C82        C3267   1.485       .  S
O83          C91   1.264       .  A
O84          C91   1.260       .  A
C85          O92   1.259       .  A
C85          O86   1.265       .  A
C85        C3201   1.489       .  S
C87          O89   1.260       .  A
C87          O93   1.262       .  A
C87        C3256   1.473       .  S
C91        C3223   1.479       .  S
In94         O96   2.244       .  S
In94         O97   2.232       .  S
In94        O105   2.232       .  S
In94         O99   2.275       .  S
In94        O101   2.278       .  S
In94        O102   2.224       .  S
In94        O103   2.249       .  S
In94        O106   2.265       .  S
C95         O101   1.261       .  A
C95         O103   1.257       .  A
C95        C3190   1.485       .  S
O96         C104   1.263       .  A
O97         C104   1.260       .  A
C98         O105   1.257       .  A
C98          O99   1.265       .  A
C98        C3146   1.482       .  S
C100        O102   1.258       .  A
C100        O106   1.264       .  A
C100       C3157   1.477       .  S
C104       C3245   1.472       .  S
C107       C3091   1.556       .  S
C107       C3113   1.558       .  S
C107       C3179   1.560       .  S
C107       C3344   1.560       .  S
C108       C3080   1.558       .  S
C108       C3102   1.555       .  S
C108       C3278   1.556       .  S
C108       C3432   1.559       .  S
In109       O111   2.268       .  S
In109       O112   2.221       .  S
In109       O120   2.222       .  S
In109       O114   2.277       .  S
In109       O116   2.281       .  S
In109       O117   2.220       .  S
In109       O118   2.226       .  S
In109       O121   2.248       .  S
C110        O116   1.266       .  A
C110        O118   1.258       .  A
C110       C3047   1.485       .  S
O111        C119   1.265       .  A
O112        C119   1.259       .  A
C113        O120   1.257       .  A
C113        O114   1.266       .  A
C113       C3003   1.482       .  S
C115        O117   1.260       .  A
C115        O121   1.262       .  A
C115       C3025   1.470       .  S
C119       C3234   1.479       .  S
In122       O124   2.234       .  S
In122       O125   2.237       .  S
In122       O133   2.229       .  S
In122       O127   2.262       .  S
In122       O129   2.268       .  S
In122       O130   2.234       .  S
In122       O131   2.230       .  S
In122       O134   2.255       .  S
C123        O129   1.264       .  A
C123        O131   1.260       .  A
C123       C2981   1.480       .  S
O124        C132   1.260       .  A
O125        C132   1.261       .  A
C126        O133   1.259       .  A
C126        O127   1.265       .  A
C126       C3520   1.479       .  S
C128        O130   1.260       .  A
C128        O134   1.263       .  A
C128       C3388   1.476       .  S
C132       C3036   1.470       .  S
In135       O137   2.252       .  S
In135       O138   2.230       .  S
In135       O146   2.237       .  S
In135       O140   2.282       .  S
In135       O142   2.284       .  S
In135       O143   2.226       .  S
In135       O144   2.245       .  S
In135       O147   2.266       .  S
C136        O142   1.265       .  A
C136        O144   1.258       .  A
C136       C2959   1.488       .  S
O137        C145   1.262       .  A
O138        C145   1.260       .  A
C139        O146   1.259       .  A
C139        O140   1.266       .  A
C139       C2915   1.488       .  S
C141        O143   1.260       .  A
C141        O147   1.264       .  A
C141       C3168   1.479       .  S
C145       C2937   1.473       .  S
In148       O150   2.267       .  S
In148       O151   2.230       .  S
In148       O159   2.237       .  S
In148       O153   2.286       .  S
In148       O155   2.278       .  S
In148       O156   2.232       .  S
In148       O157   2.244       .  S
In148       O160   2.253       .  S
C149        O155   1.264       .  A
C149        O157   1.258       .  A
C149       C2893   1.485       .  S
O150        C158   1.265       .  A
O151        C158   1.260       .  A
C152        O159   1.258       .  A
C152        O153   1.265       .  A
C152       C3674   1.487       .  S
C154        O156   1.259       .  A
C154        O160   1.261       .  A
C154       C2948   1.473       .  S
C158       C3322   1.481       .  S
C161       C2849   1.562       .  S
C161       C2871   1.557       .  S
C161       C2970   1.562   1_455  S
C161       C3058   1.559       .  S
C162       C2827   1.557       .  S
C162       C2882   1.557       .  S
C162       C2904   1.559   1_455  S
C162       C2992   1.555       .  S
In163       O165   2.263       .  S
In163       O166   2.234       .  S
In163       O174   2.232       .  S
In163       O168   2.263       .  S
In163       O170   2.269       .  S
In163       O171   2.231       .  S
In163       O172   2.241       .  S
In163       O175   2.257       .  S
C164        O170   1.261       .  A
C164        O172   1.257       .  A
C164       C2805   1.479       .  S
O165        C173   1.265       .  A
O166        C173   1.260       .  A
C167        O174   1.259       .  A
C167        O168   1.263       .  A
C167       C2761   1.479       .  S
C169        O171   1.259       .  A
C169        O175   1.260       .  A
C169       C2794   1.474       .  S
C173       C2750   1.481       .  S
In176       O178   2.256       .  S
In176       O179   2.242       .  S
In176       O187   2.243       .  S
In176       O181   2.275       .  S
In176       O183   2.278       .  S
In176       O184   2.229       .  S
In176       O185   2.243       .  S
In176       O188   2.266       .  S
C177        O183   1.263       .  A
C177        O185   1.258       .  A
C177       C2717   1.485       .  S
O178        C186   1.260       .  A
O179        C186   1.259       .  A
C180        O187   1.259       .  A
C180        O181   1.264       .  A
C180       C2926   1.486       .  S
C182        O184   1.260       .  A
C182        O188   1.265       .  A
C182       C2706   1.480       .  S
C186       C2783   1.477       .  S
In189       O191   2.246       .  S
In189       O192   2.232       .  S
In189       O200   2.238       .  S
In189       O194   2.274       .  S
In189       O196   2.266       .  S
In189       O197   2.228       .  S
In189       O198   2.244       .  S
In189       O201   2.259       .  S
C190        O196   1.263       .  A
C190        O198   1.259       .  A
C190       C2673   1.482       .  S
O191        C199   1.262       .  A
O192        C199   1.261       .  A
C193        O200   1.257       .  A
C193        O194   1.263       .  A
C193       C2607   1.481       .  S
C195        O197   1.260       .  A
C195        O201   1.263       .  A
C195       C2640   1.477       .  S
C199       C2662   1.473       .  S
In202       O204   2.270       .  S
In202       O205   2.227       .  S
In202       O213   2.286       .  S
In202       O207   2.225       .  S
In202       O209   2.277       .  S
In202       O210   2.230       .  S
In202       O211   2.236       .  S
In202       O214   2.246       .  S
C203        O209   1.265       .  A
C203        O211   1.258       .  A
C203       C2585   1.484       .  S
O204        C212   1.265       .  A
O205        C212   1.259       .  A
C206        O213   1.266       .  A
C206        O207   1.257       .  A
C206       C3014   1.484       .  S
C208        O210   1.261       .  A
C208        O214   1.262       .  A
C208       C2651   1.472       .  S
C212       C2563   1.481       .  S
C215       C2541   1.558       .  S
C215       C2596   1.556       .  S
C215       C2728   1.556       .  S
C215       C3498   1.556       .  S
C216       C2552   1.561       .  S
C216       C2684   1.558       .  S
C216       C2816   1.556       .  S
C216       C3454   1.554       .  S
In217       O219   2.243       .  S
In217       O220   2.241       .  S
In217       O228   2.279       .  S
In217       O222   2.236       .  S
In217       O224   2.267       .  S
In217       O225   2.231       .  S
In217       O226   2.242       .  S
In217       O229   2.257       .  S
C218        O224   1.263       .  A
C218        O226   1.259       .  A
C218       C2530   1.481       .  S
O219        C227   1.261       .  A
O220        C227   1.261       .  A
C221        O228   1.263       .  A
C221        O222   1.257       .  A
C221       C2486   1.483       .  S
C223        O225   1.261       .  A
C223        O229   1.264       .  A
C223       C2629   1.478       .  S
C227       C2497   1.475       .  S
In230       O232   2.263       .  S
In230       O233   2.230       .  S
In230       O241   2.241       .  S
In230       O235   2.276       .  S
In230       O237   2.275       .  S
In230       O238   2.237       .  S
In230       O239   2.237       .  S
In230       O242   2.250       .  S
C231        O237   1.265       .  A
C231        O239   1.259       .  A
C231       C2453   1.485       .  S
O232        C240   1.265       .  A
O233        C240   1.260       .  A
C234        O241   1.258       .  A
C234        O235   1.265       .  A
C234       C2431   1.485       .  S
C236        O238   1.260       .  A
C236        O242   1.260       .  A
C236       C2508   1.473       .  S
C240       C2739   1.480       .  S
In243       O245   2.247       .  S
In243       O246   2.229       .  S
In243       O254   2.243       .  S
In243       O248   2.285       .  S
In243       O250   2.240       .  S
In243       O251   2.228       .  S
In243       O252   2.276       .  S
In243       O255   2.266       .  S
C244        O250   1.260       .  A
C244        O252   1.265       .  A
C244       C2409   1.486       .  S
O245        C253   1.261       .  A
O246        C253   1.259       .  A
C247        O254   1.257       .  A
C247        O248   1.264       .  A
C247       C2376   1.488       .  S
C249        O251   1.258       .  A
C249        O255   1.264       .  A
C249       C2695   1.478       .  S
C253       C2387   1.471       .  S
In256       O258   2.263       .  S
In256       O259   2.234       .  S
In256       O267   2.227       .  S
In256       O261   2.278       .  S
In256       O263   2.274       .  S
In256       O264   2.228       .  S
In256       O265   2.237       .  S
In256       O268   2.246       .  S
C257        O263   1.265       .  A
C257        O265   1.260       .  A
C257       C2343   1.485       .  S
O258        C266   1.264       .  A
O259        C266   1.260       .  A
C260        O267   1.258       .  A
C260        O261   1.266       .  A
C260       C2321   1.483       .  S
C262        O264   1.261       .  A
C262        O268   1.262       .  A
C262       C2398   1.472       .  S
C266       C2574   1.480       .  S
C269       C2277   1.555       .  S
C269       C2299   1.558       .  S
C269       C2354   1.559       .  S
C269       C2519   1.557   1_565  S
C270       C2266   1.558       .  S
C270       C2310   1.558       .  S
C270       C2420   1.556       .  S
C270       C2464   1.559   1_565  S
In271       O273   2.265       .  S
In271       O274   2.227       .  S
In271       O282   2.238       .  S
In271       O276   2.285       .  S
In271       O278   2.272       .  S
In271       O279   2.238       .  S
In271       O280   2.250       .  S
In271       O283   2.241       .  S
C272        O278   1.262       .  A
C272        O280   1.259       .  A
C272       C2244   1.485       .  S
O273        C281   1.266       .  A
O274        C281   1.260       .  A
C275        O282   1.257       .  A
C275        O276   1.264       .  A
C275       C2200   1.485       .  S
C277        O279   1.260       .  A
C277        O283   1.260       .  A
C277       C2211   1.472       .  S
C281       C3597   1.480       .  S
In284       O286   2.244       .  S
In284       O287   2.238       .  S
In284       O295   2.248       .  S
In284       O289   2.281       .  S
In284       O291   2.272       .  S
In284       O292   2.237       .  S
In284       O293   2.243       .  S
In284       O296   2.260       .  S
C285        O291   1.263       .  A
C285        O293   1.259       .  A
C285       C2167   1.483       .  S
O286        C294   1.262       .  A
O287        C294   1.261       .  A
C288        O295   1.257       .  A
C288        O289   1.262       .  A
C288       C2156   1.485       .  S
C290        O292   1.260       .  A
C290        O296   1.263       .  A
C290       C3762   1.479       .  S
C294       C2222   1.474       .  S
In297       O299   2.261       .  S
In297       O300   2.230       .  S
In297       O308   2.233       .  S
In297       O302   2.281       .  S
In297       O304   2.287       .  S
In297       O305   2.223       .  S
In297       O306   2.238       .  S
In297       O309   2.268       .  S
C298        O304   1.264       .  A
C298        O306   1.258       .  A
C298       C2123   1.487       .  S
O299        C307   1.262       .  A
O300        C307   1.258       .  A
C301        O308   1.258       .  A
C301        O302   1.265       .  A
C301       C2079   1.484       .  S
C303        O305   1.258       .  A
C303        O309   1.265       .  A
C303       C3542   1.478       .  S
C307       C2101   1.476       .  S
In310       O312   2.268       .  S
In310       O313   2.224       .  S
In310       O321   2.236       .  S
In310       O315   2.274       .  S
In310       O317   2.274       .  S
In310       O318   2.238       .  S
In310       O319   2.239       .  S
In310       O322   2.248       .  S
C311        O317   1.264       .  A
C311        O319   1.258       .  A
C311       C2057   1.484       .  S
O312        C320   1.265       .  A
O313        C320   1.259       .  A
C314        O321   1.259       .  A
C314        O315   1.264       .  A
C314       C2035   1.483       .  S
C316        O318   1.260       .  A
C316        O322   1.261       .  A
C316       C2112   1.474       .  S
C320       C3696   1.480       .  S
C323       C2013   1.559       .  S
C323       C2134   1.559       .  S
C323       C2233   1.558   1_565  S
C323       C2288   1.557       .  S
C324       C2024   1.558       .  S
C324       C2068   1.558       .  S
C324       C2178   1.557   1_565  S
C324       C2255   1.559       .  S
In325       O327   2.256       .  S
In325       O328   2.236       .  S
In325       O336   2.225       .  S
In325       O330   2.281       .  S
In325       O332   2.275       .  S
In325       O333   2.231       .  S
In325       O334   2.243       .  S
In325       O337   2.241       .  S
C326        O332   1.263       .  A
C326        O334   1.258       .  A
C326       C2002   1.483       .  S
O327        C335   1.265       .  A
O328        C335   1.262       .  A
C329        O336   1.257       .  A
C329        O330   1.265       .  A
C329       C2332   1.482       .  S
C331        O333   1.262       .  A
C331        O337   1.261       .  A
C331       C1969   1.472       .  S
C335       C1958   1.482       .  S
In338       O340   2.241       .  S
In338       O341   2.239       .  S
In338       O349   2.227       .  S
In338       O343   2.279       .  S
In338       O345   2.278       .  S
In338       O346   2.229       .  S
In338       O347   2.250       .  S
In338       O350   2.267       .  S
C339        O345   1.262       .  A
C339        O347   1.257       .  A
C339       C1925   1.485       .  S
O340        C348   1.260       .  A
O341        C348   1.261       .  A
C342        O349   1.258       .  A
C342        O343   1.267       .  A
C342       C2090   1.484       .  S
C344        O346   1.261       .  A
C344        O350   1.266       .  A
C344       C1903   1.481       .  S
C348       C1980   1.473       .  S
In351       O353   2.245       .  S
In351       O354   2.241       .  S
In351       O362   2.235       .  S
In351       O356   2.277       .  S
In351       O358   2.273       .  S
In351       O359   2.233       .  S
In351       O360   2.246       .  S
In351       O363   2.257       .  S
C352        O358   1.263       .  A
C352        O360   1.259       .  A
C352       C1881   1.485       .  S
O353        C361   1.261       .  A
O354        C361   1.261       .  A
C355        O362   1.258       .  A
C355        O356   1.264       .  A
C355       C2475   1.483       .  S
C357        O359   1.261       .  A
C357        O363   1.264       .  A
C357       C1848   1.478       .  S
C361       C1859   1.474       .  S
In364       O366   2.262       .  S
In364       O367   2.228       .  S
In364       O375   2.237       .  S
In364       O369   2.282       .  S
In364       O371   2.274       .  S
In364       O372   2.233       .  S
In364       O373   2.243       .  S
In364       O376   2.247       .  S
C365        O371   1.266       .  A
C365        O373   1.260       .  A
C365       C1815   1.488       .  S
O366        C374   1.264       .  A
O367        C374   1.260       .  A
C368        O375   1.258       .  A
C368        O369   1.265       .  A
C368       C2189   1.486       .  S
C370        O372   1.261       .  A
C370        O376   1.261       .  A
C370       C1870   1.473       .  S
C374       C1793   1.478       .  S
C377       C1749   1.556       .  S
C377       C1771   1.560       .  S
C377       C1826   1.560       .  S
C377       C1936   1.561       .  S
C378       C1738   1.556       .  S
C378       C1760   1.556       .  S
C378       C1892   1.556       .  S
C378       C1991   1.558       .  S
In379       O381   2.244       .  S
In379       O382   2.242       .  S
In379       O390   2.248       .  S
In379       O384   2.273       .  S
In379       O386   2.276       .  S
In379       O387   2.224       .  S
In379       O388   2.254       .  S
In379       O391   2.255       .  S
C380        O386   1.264       .  A
C380        O388   1.259       .  A
C380       C1705   1.488       .  S
O381        C389   1.260       .  A
O382        C389   1.260       .  A
C383        O390   1.259       .  A
C383        O384   1.265       .  A
C383       C2365   1.487       .  S
C385        O387   1.260       .  A
C385        O391   1.264       .  A
C385       C1661   1.476       .  S
C389       C1694   1.474       .  S
In392       O394   2.264       .  S
In392       O395   2.228       .  S
In392       O403   2.230       .  S
In392       O397   2.279       .  S
In392       O399   2.275       .  S
In392       O400   2.225       .  S
In392       O401   2.238       .  S
In392       O404   2.248       .  S
C393        O399   1.265       .  A
C393        O401   1.258       .  A
C393       C1639   1.485       .  S
O394        C402   1.264       .  A
O395        C402   1.260       .  A
C396        O403   1.258       .  A
C396        O397   1.266       .  A
C396       C2046   1.483       .  S
C398        O400   1.261       .  A
C398        O404   1.262       .  A
C398       C1683   1.473       .  S
C402       C1617   1.480       .  S
In405       O407   2.264       .  S
In405       O408   2.235       .  S
In405       O416   2.232       .  S
In405       O410   2.275       .  S
In405       O412   2.278       .  S
In405       O413   2.237       .  S
In405       O414   2.244       .  S
In405       O417   2.242       .  S
C406        O412   1.263       .  A
C406        O414   1.259       .  A
C406       C1595   1.485       .  S
O407        C415   1.264       .  A
O408        C415   1.260       .  A
C409        O416   1.258       .  A
C409        O410   1.266       .  A
C409       C2442   1.484       .  S
C411        O413   1.261       .  A
C411        O417   1.261       .  A
C411       C1584   1.473       .  S
C415       C1551   1.481       .  S
In418       O420   2.240       .  S
In418       O421   2.232       .  S
In418       O429   2.236       .  S
In418       O423   2.280       .  S
In418       O425   2.280       .  S
In418       O426   2.230       .  S
In418       O427   2.245       .  S
In418       O430   2.257       .  S
C419        O425   1.264       .  A
C419        O427   1.259       .  A
C419       C1529   1.488       .  S
O420        C428   1.262       .  A
O421        C428   1.262       .  A
C422        O429   1.257       .  A
C422        O423   1.266       .  A
C422       C2145   1.484       .  S
C424        O426   1.261       .  A
C424        O430   1.264       .  A
C424       C1507   1.477       .  S
C428       C1573   1.473       .  S
C431       C1485   1.557       .  S
C431       C1540   1.559       .  S
C431       C1650   1.560       .  S
C431       C1782   1.558       .  S
C432       C1496   1.558       .  S
C432       C1606   1.557       .  S
C432       C1716   1.559       .  S
C432       C1727   1.557       .  S
In433       O435   2.242       .  S
In433       O436   2.232       .  S
In433       O444   2.234       .  S
In433       O438   2.282       .  S
In433       O440   2.279       .  S
In433       O441   2.236       .  S
In433       O442   2.244       .  S
In433       O445   2.254       .  S
C434        O440   1.264       .  A
C434        O442   1.258       .  A
C434       C1474   1.487       .  S
O435        C443   1.261       .  A
O436        C443   1.260       .  A
C437        O444   1.259       .  A
C437        O438   1.266       .  A
C437       C1419   1.487       .  S
C439        O441   1.260       .  A
C439        O445   1.264       .  A
C439       C1837   1.478       .  S
C443       C1441   1.472       .  S
In446       O448   2.272       .  S
In446       O449   2.233       .  S
In446       O457   2.243       .  S
In446       O451   2.281       .  S
In446       O453   2.285       .  S
In446       O454   2.236       .  S
In446       O455   2.258       .  S
In446       O458   2.249       .  S
C447        O453   1.262       .  A
C447        O455   1.258       .  A
C447       C1397   1.490       .  S
O448        C456   1.266       .  A
O449        C456   1.260       .  A
C450        O457   1.259       .  A
C450        O451   1.266       .  A
C450       C3212   1.489       .  S
C452        O454   1.259       .  A
C452        O458   1.260       .  A
C452       C1452   1.472       .  S
C456       C1947   1.484       .  S
In459       O461   2.253       .  S
In459       O462   2.226       .  S
In459       O470   2.231       .  S
In459       O464   2.288       .  S
In459       O466   2.270       .  S
In459       O467   2.225       .  S
In459       O468   2.243       .  S
In459       O471   2.274       .  S
C460        O466   1.264       .  A
C460        O468   1.259       .  A
C460       C1375   1.484       .  S
O461        C469   1.261       .  A
O462        C469   1.259       .  A
C463        O470   1.256       .  A
C463        O464   1.264       .  A
C463       C3366   1.484       .  S
C465        O467   1.258       .  A
C465        O471   1.265       .  A
C465       C1914   1.480       .  S
C469       C1353   1.472       .  S
In472       O474   2.262       .  S
In472       O475   2.225       .  S
In472       O483   2.244       .  S
In472       O477   2.283       .  S
In472       O479   2.283       .  S
In472       O480   2.226       .  S
In472       O481   2.248       .  S
In472       O484   2.252       .  S
C473        O479   1.264       .  A
C473        O481   1.258       .  A
C473       C1331   1.488       .  S
O474        C482   1.266       .  A
O475        C482   1.259       .  A
C476        O483   1.258       .  A
C476        O477   1.265       .  A
C476       C1309   1.487       .  S
C478        O480   1.258       .  A
C478        O484   1.261       .  A
C478       C1364   1.472       .  S
C482       C1804   1.478       .  S
C485       C1265   1.557       .  S
C485       C1287   1.558       .  S
C485       C1342   1.559   1_554  S
C485       C1463   1.559       .  S
C486       C1243   1.556       .  S
C486       C1298   1.558       .  S
C486       C1386   1.557   1_554  S
C486       C1408   1.560       .  S
In487       O489   2.271       .  S
In487       O490   2.227       .  S
In487       O498   2.235       .  S
In487       O492   2.276       .  S
In487       O494   2.267       .  S
In487       O495   2.242       .  S
In487       O496   2.260       .  S
In487       O499   2.241       .  S
C488        O494   1.260       .  A
C488        O496   1.259       .  A
C488       C1232   1.485       .  S
O489        C497   1.266       .  A
O490        C497   1.260       .  A
C491        O498   1.258       .  A
C491        O492   1.264       .  A
C491       C1177   1.483       .  S
C493        O495   1.260       .  A
C493        O499   1.260       .  A
C493       C1199   1.473       .  S
C497       C1562   1.482       .  S
In500       O502   2.246       .  S
In500       O503   2.231       .  S
In500       O511   2.224       .  S
In500       O505   2.280       .  S
In500       O507   2.272       .  S
In500       O508   2.230       .  S
In500       O509   2.239       .  S
In500       O512   2.259       .  S
C501        O507   1.262       .  A
C501        O509   1.259       .  A
C501       C1155   1.482       .  S
O502        C510   1.261       .  A
O503        C510   1.259       .  A
C504        O511   1.257       .  A
C504        O505   1.265       .  A
C504       C3135   1.481       .  S
C506        O508   1.259       .  A
C506        O512   1.264       .  A
C506       C1672   1.477       .  S
C510       C1210   1.472       .  S
In513       O515   2.245       .  S
In513       O516   2.228       .  S
In513       O524   2.232       .  S
In513       O518   2.282       .  S
In513       O520   2.280       .  S
In513       O521   2.220       .  S
In513       O522   2.244       .  S
In513       O525   2.263       .  S
C514        O520   1.264       .  A
C514        O522   1.259       .  A
C514       C1133   1.487       .  S
O515        C523   1.263       .  A
O516        C523   1.260       .  A
C517        O524   1.257       .  A
C517        O518   1.265       .  A
C517       C1100   1.484       .  S
C519        O521   1.259       .  A
C519        O525   1.264       .  A
C519       C1518   1.475       .  S
C523       C1111   1.473       .  S
In526       O528   2.264       .  S
In526       O529   2.235       .  S
In526       O537   2.244       .  S
In526       O531   2.275       .  S
In526       O533   2.268       .  S
In526       O534   2.240       .  S
In526       O535   2.256       .  S
In526       O538   2.247       .  S
C527        O533   1.261       .  A
C527        O535   1.259       .  A
C527       C1067   1.485       .  S
O528        C536   1.263       .  A
O529        C536   1.259       .  A
C530        O537   1.257       .  A
C530        O531   1.261       .  A
C530       C3300   1.482       .  S
C532        O534   1.260       .  A
C532        O538   1.262       .  A
C532       C1122   1.475       .  S
C536       C1628   1.480       .  S
C539       C1045   1.555       .  S
C539       C1144   1.558       .  S
C539       C1221   1.559       .  S
C539       C1276   1.557       .  S
C540       C1056   1.555       .  S
C540       C1078   1.559   1_554  S
C540       C1166   1.555       .  S
C540       C1254   1.554       .  S
In541       O543   2.252       .  S
In541       O544   2.235       .  S
In541       O552   2.241       .  S
In541       O546   2.278       .  S
In541       O548   2.286       .  S
In541       O549   2.228       .  S
In541       O550   2.239       .  S
In541       O553   2.271       .  S
C542        O548   1.265       .  A
C542        O550   1.259       .  A
C542       C1034   1.488       .  S
O543        C551   1.262       .  A
O544        C551   1.260       .  A
C545        O552   1.258       .  A
C545        O546   1.265       .  A
C545       C2618   1.485       .  S
C547        O549   1.259       .  A
C547        O553   1.264       .  A
C547        C990   1.480       .  S
C551       C1001   1.476       .  S
In554       O556   2.266       .  S
In554       O557   2.230       .  S
In554       O565   2.242       .  S
In554       O559   2.281       .  S
In554       O561   2.280       .  S
In554       O562   2.237       .  S
In554       O563   2.253       .  S
In554       O566   2.253       .  S
C555        O561   1.262       .  A
C555        O563   1.257       .  A
C555        C968   1.487       .  S
O556        C564   1.265       .  A
O557        C564   1.260       .  A
C558        O565   1.258       .  A
C558        O559   1.265       .  A
C558       C3586   1.487       .  S
C560        O562   1.260       .  A
C560        O566   1.261       .  A
C560       C1012   1.476       .  S
C564        C935   1.480       .  S
In567       O569   2.251       .  S
In567       O570   2.235       .  S
In567       O578   2.228       .  S
In567       O572   2.277       .  S
In567       O574   2.269       .  S
In567       O575   2.219       .  S
In567       O576   2.247       .  S
In567       O579   2.272       .  S
C568        O574   1.262       .  A
C568        O576   1.258       .  A
C568        C913   1.484       .  S
O569        C577   1.260       .  A
O570        C577   1.258       .  A
C571        O578   1.258       .  A
C571        O572   1.265       .  A
C571       C3729   1.481       .  S
C573        O575   1.259       .  A
C573        O579   1.266       .  A
C573        C869   1.481       .  S
C577        C891   1.472       .  S
In580       O582   2.254       .  S
In580       O583   2.226       .  S
In580       O591   2.238       .  S
In580       O585   2.277       .  S
In580       O587   2.283       .  S
In580       O588   2.228       .  S
In580       O589   2.243       .  S
In580       O592   2.245       .  S
C581        O587   1.264       .  A
C581        O589   1.258       .  A
C581        C847   1.488       .  S
O582        C590   1.264       .  A
O583        C590   1.261       .  A
C584        O591   1.257       .  A
C584        O585   1.265       .  A
C584       C2772   1.483       .  S
C586        O588   1.261       .  A
C586        O592   1.263       .  A
C586        C902   1.473       .  S
C590        C836   1.477       .  S
C593        C803   1.558       .  S
C593        C858   1.563   1_455  S
C593       C1023   1.560       .  S
C593       C2860   1.564       .  S
C594        C814   1.557       .  S
C594        C924   1.558   1_455  S
C594        C957   1.562       .  S
C594       C2838   1.559       .  S
In595       O597   2.259       .  S
In595       O598   2.225       .  S
In595       O606   2.230       .  S
In595       O600   2.280       .  S
In595       O602   2.273       .  S
In595       O603   2.236       .  S
In595       O604   2.250       .  S
In595       O607   2.250       .  S
C596        O602   1.263       .  A
C596        O604   1.258       .  A
C596        C781   1.485       .  S
O597        C605   1.264       .  A
O598        C605   1.260       .  A
C599        O606   1.258       .  A
C599        O600   1.266       .  A
C599       C1320   1.484       .  S
C601        O603   1.260       .  A
C601        O607   1.261       .  A
C601        C759   1.475       .  S
C605        C946   1.477       .  S
In608       O610   2.257       .  S
In608       O611   2.238       .  S
In608       O619   2.241       .  S
In608       O613   2.282       .  S
In608       O615   2.282       .  S
In608       O616   2.227       .  S
In608       O617   2.254       .  S
In608       O620   2.271       .  S
C609        O615   1.262       .  A
C609        O617   1.258       .  A
C609        C737   1.488       .  S
O610        C618   1.261       .  A
O611        C618   1.259       .  A
C612        O619   1.258       .  A
C612        O613   1.265       .  A
C612       C1089   1.486       .  S
C614        O616   1.261       .  A
C614        O620   1.266       .  A
C614        C880   1.483       .  S
C618        C770   1.476       .  S
In621       O623   2.237       .  S
In621       O624   2.235       .  S
In621       O632   2.235       .  S
In621       O626   2.283       .  S
In621       O628   2.275       .  S
In621       O629   2.235       .  S
In621       O630   2.241       .  S
In621       O633   2.259       .  S
C622        O628   1.265       .  A
C622        O630   1.259       .  A
C622        C715   1.486       .  S
O623        C631   1.262       .  A
O624        C631   1.261       .  A
C625        O632   1.258       .  A
C625        O626   1.265       .  A
C625       C1430   1.486       .  S
C627        O629   1.260       .  A
C627        O633   1.263       .  A
C627        C979   1.478       .  S
C631        C704   1.472       .  S
In634       O636   2.263       .  S
In634       O637   2.228       .  S
In634       O645   2.232       .  S
In634       O639   2.278       .  S
In634       O641   2.262       .  S
In634       O642   2.234       .  S
In634       O643   2.246       .  S
In634       O646   2.236       .  S
C635        O641   1.263       .  A
C635        O643   1.260       .  A
C635        C671   1.482       .  S
O636        C644   1.264       .  A
O637        C644   1.259       .  A
C638        O645   1.257       .  A
C638        O639   1.264       .  A
C638       C1188   1.482       .  S
C640        O642   1.261       .  A
C640        O646   1.260       .  A
C640        C693   1.469       .  S
C644        C825   1.479       .  S
C647        C660   1.557       .  S
C647        C726   1.560       .  S
C647        C792   1.557       .  S
C647       C3069   1.559       .  S
C648        C649   1.556       .  S
C648        C682   1.557       .  S
C648        C748   1.560       .  S
C648       C3124   1.556       .  S
C649        C650   1.415       .  A
C649        C654   1.417       .  A
C650        C651   1.398       .  A
C650        H663   1.083       .  S
C651        C652   1.397       .  A
C651        H664   1.083       .  S
C652        C653   1.396       .  A
C652        C655   1.440   1_655  S
C653        C654   1.397       .  A
C653        H665   1.084       .  S
C654        H666   1.079       .  S
C655        C656   1.206       .  T
C656        C657   1.440       .  S
C657        C658   1.396       .  A
C657        C662   1.397       .  A
C658        C659   1.397       .  A
C658        H667   1.083       .  S
C659        C660   1.416       .  A
C659        H668   1.083       .  S
C660        C661   1.417       .  A
C661        C662   1.398       .  A
C661        H669   1.079       .  S
C662        H670   1.084       .  S
C671        C672   1.407       .  A
C671        C676   1.406       .  A
C672        C673   1.403       .  A
C672        H685   1.083       .  S
C673        C674   1.402       .  A
C673        H686   1.083       .  S
C674        C675   1.400       .  A
C674        C677   1.447       .  S
C675        C676   1.400       .  A
C675        H687   1.083       .  S
C676        H688   1.083       .  S
C677        C678   1.211       .  T
C678        C679   1.447       .  S
C679        C680   1.399       .  A
C679        C684   1.399       .  A
C680        C681   1.401       .  A
C680        H689   1.083       .  S
C681        C682   1.414       .  A
C681        H690   1.083       .  S
C682        C683   1.416       .  A
C683        C684   1.401       .  A
C683        H691   1.080       .  S
C684        H692   1.083       .  S
C693        C694   1.405       .  A
C693        C698   1.404       .  A
C694        C695   1.396       .  A
C694        H707   1.083       .  S
C695        C696   1.399       .  A
C695        H708   1.083       .  S
C696        C697   1.399       .  A
C696        C699   1.432   1_655  S
C697        C698   1.395       .  A
C697        H709   1.084       .  S
C698        H710   1.083       .  S
C699        C700   1.201       .  T
C700        C701   1.432       .  S
C701        C702   1.399       .  A
C701        C706   1.398       .  A
C702        C703   1.395       .  A
C702        H711   1.084       .  S
C703        C704   1.405       .  A
C703        H712   1.083       .  S
C704        C705   1.406       .  A
C705        C706   1.397       .  A
C705        H713   1.083       .  S
C706        H714   1.083       .  S
C715        C716   1.408       .  A
C715        C720   1.407       .  A
C716        C717   1.400       .  A
C716        H729   1.083       .  S
C717        C718   1.400       .  A
C717        H730   1.084       .  S
C718        C719   1.403       .  A
C718        C721   1.449       .  S
C719        C720   1.405       .  A
C719        H731   1.083       .  S
C720        H732   1.083       .  S
C721        C722   1.211       .  T
C722        C723   1.449       .  S
C723        C724   1.401       .  A
C723        C728   1.396       .  A
C724        C725   1.405       .  A
C724        H733   1.083       .  S
C725        C726   1.416       .  A
C725        H734   1.083       .  S
C726        C727   1.418       .  A
C727        C728   1.397       .  A
C727        H735   1.079       .  S
C728        H736   1.084       .  S
C737        C738   1.408       .  A
C737        C742   1.408       .  A
C738        C739   1.406       .  A
C738        H751   1.083       .  S
C739        C740   1.404       .  A
C739        H752   1.083       .  S
C740        C741   1.401       .  A
C740        C743   1.453       .  S
C741        C742   1.402       .  A
C741        H753   1.083       .  S
C742        H754   1.083       .  S
C743        C744   1.214       .  T
C744        C745   1.453       .  S
C745        C746   1.399       .  A
C745        C750   1.401       .  A
C746        C747   1.401       .  A
C746        H755   1.084       .  S
C747        C748   1.417       .  A
C747        H756   1.080       .  S
C748        C749   1.415       .  A
C749        C750   1.405       .  A
C749        H757   1.083       .  S
C750        H758   1.083       .  S
C759        C760   1.405       .  A
C759        C764   1.406       .  A
C760        C761   1.396       .  A
C760        H773   1.083       .  S
C761        C762   1.399       .  A
C761        H774   1.084       .  S
C762        C763   1.400       .  A
C762        C765   1.439       .  S
C763        C764   1.400       .  A
C763        H775   1.083       .  S
C764        H776   1.083       .  S
C765        C766   1.205       .  T
C766        C767   1.439   1_455  S
C767        C768   1.401       .  A
C767        C772   1.399       .  A
C768        C769   1.401       .  A
C768        H777   1.083       .  S
C769        C770   1.407       .  A
C769        H778   1.083       .  S
C770        C771   1.405       .  A
C771        C772   1.396       .  A
C771        H779   1.083       .  S
C772        H780   1.084       .  S
C781        C782   1.406       .  A
C781        C786   1.408       .  A
C782        C783   1.402       .  A
C782        H795   1.083       .  S
C783        C784   1.402       .  A
C783        H796   1.083       .  S
C784        C785   1.401       .  A
C784        C787   1.447       .  S
C785        C786   1.401       .  A
C785        H797   1.083       .  S
C786        H798   1.083       .  S
C787        C788   1.210       .  T
C788        C789   1.447       .  S
C789        C790   1.398       .  A
C789        C794   1.398       .  A
C790        C791   1.401       .  A
C790        H799   1.084       .  S
C791        C792   1.416       .  A
C791        H800   1.079       .  S
C792        C793   1.416       .  A
C793        C794   1.400       .  A
C793        H801   1.083       .  S
C794        H802   1.083       .  S
C803        C804   1.416       .  A
C803        C808   1.416   1_455  A
C804        C805   1.400       .  A
C804        H817   1.079       .  S
C805        C806   1.399       .  A
C805        H818   1.083       .  S
C806        C807   1.397   1_455  A
C806        C809   1.443       .  S
C807        C808   1.397       .  A
C807        H819   1.083       .  S
C808        H820   1.083       .  S
C809        C810   1.208       .  T
C810        C811   1.443       .  S
C811        C812   1.398   1_455  A
C811        C816   1.397       .  A
C812        C813   1.400       .  A
C812        H821   1.083       .  S
C813        C814   1.416   1_655  A
C813        H822   1.079       .  S
C814        C815   1.416       .  A
C815        C816   1.397       .  A
C815        H823   1.083       .  S
C816        H824   1.083       .  S
C825        C826   1.406       .  A
C825        C830   1.407       .  A
C826        C827   1.402       .  A
C826        H839   1.083       .  S
C827        C828   1.402       .  A
C827        H840   1.083       .  S
C828        C829   1.398       .  A
C828        C831   1.440       .  S
C829        C830   1.396       .  A
C829        H841   1.084       .  S
C830        H842   1.083       .  S
C831        C832   1.206       .  T
C832        C833   1.440       .  S
C833        C834   1.402       .  A
C833        C838   1.398       .  A
C834        C835   1.401       .  A
C834        H843   1.083       .  S
C835        C836   1.406       .  A
C835        H844   1.083       .  S
C836        C837   1.406       .  A
C837        C838   1.395       .  A
C837        H845   1.083       .  S
C838        H846   1.084       .  S
C847        C848   1.408       .  A
C847        C852   1.407       .  A
C848        C849   1.401       .  A
C848        H861   1.083       .  S
C849        C850   1.401       .  A
C849        H862   1.083       .  S
C850        C851   1.404       .  A
C850        C853   1.453       .  S
C851        C852   1.406       .  A
C851        H863   1.083       .  S
C852        H864   1.083       .  S
C853        C854   1.214       .  T
C854        C855   1.453       .  S
C855        C856   1.399       .  A
C855        C860   1.400       .  A
C856        C857   1.403       .  A
C856        H865   1.084       .  S
C857        C858   1.418       .  A
C857        H866   1.078       .  S
C858        C859   1.417       .  A
C859        C860   1.403       .  A
C859        H867   1.083   1_655  S
C860        H868   1.083       .  S
C869        C870   1.406       .  A
C869        C874   1.407       .  A
C870        C871   1.405       .  A
C870        H883   1.083       .  S
C871        C872   1.404       .  A
C871        H884   1.083       .  S
C872        C873   1.398       .  A
C872        C875   1.445       .  S
C873        C874   1.396       .  A
C873        H885   1.084       .  S
C874        H886   1.083       .  S
C875        C876   1.209       .  T
C876        C877   1.446       .  S
C877        C878   1.403       .  A
C877        C882   1.398       .  A
C878        C879   1.405       .  A
C878        H887   1.083       .  S
C879        C880   1.407       .  A
C879        H888   1.083       .  S
C880        C881   1.407       .  A
C881        C882   1.397       .  A
C881        H889   1.083       .  S
C882        H890   1.084       .  S
C891        C892   1.405       .  A
C891        C896   1.406       .  A
C892        C893   1.395       .  A
C892        H905   1.083       .  S
C893        C894   1.398       .  A
C893        H906   1.084       .  S
C894        C895   1.400       .  A
C894        C897   1.435       .  S
C895        C896   1.398       .  A
C895        H907   1.083       .  S
C896        H908   1.083       .  S
C897        C898   1.203       .  T
C898        C899   1.435       .  S
C899        C900   1.400       .  A
C899        C904   1.398       .  A
C900        C901   1.399       .  A
C900        H909   1.083       .  S
C901        C902   1.406       .  A
C901        H910   1.083       .  S
C902        C903   1.405       .  A
C903        C904   1.395       .  A
C903        H911   1.083       .  S
C904        H912   1.084       .  S
C913        C914   1.407       .  A
C913        C918   1.407       .  A
C914        C915   1.403       .  A
C914        H927   1.083       .  S
C915        C916   1.402       .  A
C915        H928   1.083       .  S
C916        C917   1.401       .  A
C916        C919   1.448       .  S
C917        C918   1.400       .  A
C917        H929   1.084       .  S
C918        H930   1.083       .  S
C919        C920   1.211       .  T
C920        C921   1.449       .  S
C921        C922   1.398       .  A
C921        C926   1.399       .  A
C922        C923   1.400       .  A
C922        H931   1.083       .  S
C923        C924   1.415       .  A
C923        H932   1.083       .  S
C924        C925   1.418       .  A
C925        C926   1.403       .  A
C925        H933   1.079       .  S
C926        H934   1.083       .  S
C935        C936   1.407       .  A
C935        C940   1.406       .  A
C936        C937   1.397       .  A
C936        H949   1.083       .  S
C937        C938   1.399       .  A
C937        H950   1.084       .  S
C938        C939   1.401       .  A
C938        C941   1.441       .  S
C939        C940   1.402       .  A
C939        H951   1.083       .  S
C940        H952   1.083       .  S
C941        C942   1.207       .  T
C942        C943   1.441       .  S
C943        C944   1.402       .  A
C943        C948   1.399       .  A
C944        C945   1.402       .  A
C944        H953   1.083       .  S
C945        C946   1.406       .  A
C945        H954   1.083       .  S
C946        C947   1.406       .  A
C947        C948   1.396       .  A
C947        H955   1.083       .  S
C948        H956   1.084       .  S
C957        C958   1.415       .  A
C957        C962   1.418       .  A
C958        C959   1.406       .  A
C958        H971   1.083       .  S
C959        C960   1.402       .  A
C959        H972   1.083       .  S
C960        C961   1.397       .  A
C960        C963   1.451       .  S
C961        C962   1.398       .  A
C961        H973   1.084       .  S
C962        H974   1.080       .  S
C963        C964   1.213       .  T
C964        C965   1.451       .  S
C965        C966   1.401       .  A
C965        C970   1.404       .  A
C966        C967   1.401       .  A
C966        H975   1.083       .  S
C967        C968   1.408       .  A
C967        H976   1.083       .  S
C968        C969   1.407       .  A
C969        C970   1.405       .  A
C969        H977   1.083       .  S
C970        H978   1.083       .  S
C979        C980   1.406       .  A
C979        C984   1.406       .  A
C980        C981   1.401       .  A
C980        H993   1.083       .  S
C981        C982   1.402       .  A
C981        H994   1.083       .  S
C982        C983   1.399       .  A
C982        C985   1.442       .  S
C983        C984   1.398       .  A
C983        H995   1.084       .  S
C984        H996   1.083       .  S
C985        C986   1.207       .  T
C986        C987   1.442       .  S
C987        C988   1.403       .  A
C987        C992   1.398       .  A
C988        C989   1.403       .  A
C988        H997   1.083       .  S
C989        C990   1.406       .  A
C989        H998   1.083       .  S
C990        C991   1.407       .  A
C991        C992   1.396       .  A
C991        H999   1.083       .  S
C992       H1000   1.084       .  S
C1001      C1002   1.406       .  A
C1001      C1006   1.406       .  A
C1002      C1003   1.400       .  A
C1002      H1015   1.083       .  S
C1003      C1004   1.400       .  A
C1003      H1016   1.083       .  S
C1004      C1005   1.399       .  A
C1004      C1007   1.439       .  S
C1005      C1006   1.396       .  A
C1005      H1017   1.084       .  S
C1006      H1018   1.083       .  S
C1007      C1008   1.205       .  T
C1008      C1009   1.439       .  S
C1009      C1010   1.399       .  A
C1009      C1014   1.401       .  A
C1010      C1011   1.396       .  A
C1010      H1019   1.084       .  S
C1011      C1012   1.405       .  A
C1011      H1020   1.083       .  S
C1012      C1013   1.406       .  A
C1013      C1014   1.400       .  A
C1013      H1021   1.083       .  S
C1014      H1022   1.083       .  S
C1023      C1024   1.416       .  A
C1023      C1028   1.417       .  A
C1024      C1025   1.405       .  A
C1024      H1037   1.079       .  S
C1025      C1026   1.401       .  A
C1025      H1038   1.083       .  S
C1026      C1027   1.398       .  A
C1026      C1029   1.453       .  S
C1027      C1028   1.401       .  A
C1027      H1039   1.083       .  S
C1028      H1040   1.083       .  S
C1029      C1030   1.214       .  T
C1030      C1031   1.453       .  S
C1031      C1032   1.405       .  A
C1031      C1036   1.399       .  A
C1032      C1033   1.408       .  A
C1032      H1041   1.083       .  S
C1033      C1034   1.408       .  A
C1033      H1042   1.083       .  S
C1034      C1035   1.407       .  A
C1035      C1036   1.399       .  A
C1035      H1043   1.083       .  S
C1036      H1044   1.084       .  S
C1045      C1046   1.416       .  A
C1045      C1050   1.416       .  A
C1046      C1047   1.397       .  A
C1046      H1059   1.079   1_554  S
C1047      C1048   1.396       .  A
C1047      H1060   1.084   1_554  S
C1048      C1049   1.397       .  A
C1048      C1051   1.439       .  S
C1049      C1050   1.397       .  A
C1049      H1061   1.083       .  S
C1050      H1062   1.083       .  S
C1051      C1052   1.205       .  T
C1052      C1053   1.439       .  S
C1053      C1054   1.394       .  A
C1053      C1058   1.398       .  A
C1054      C1055   1.394       .  A
C1054      H1063   1.084       .  S
C1055      C1056   1.417       .  A
C1055      H1064   1.080       .  S
C1056      C1057   1.416       .  A
C1057      C1058   1.400       .  A
C1057      H1065   1.083       .  S
C1058      H1066   1.083       .  S
C1067      C1068   1.407       .  A
C1067      C1072   1.407       .  A
C1068      C1069   1.402       .  A
C1068      H1081   1.083       .  S
C1069      C1070   1.401       .  A
C1069      H1082   1.083       .  S
C1070      C1071   1.402       .  A
C1070      C1073   1.449       .  S
C1071      C1072   1.403       .  A
C1071      H1083   1.083       .  S
C1072      H1084   1.083       .  S
C1073      C1074   1.212       .  T
C1074      C1075   1.449       .  S
C1075      C1076   1.400       .  A
C1075      C1080   1.398       .  A
C1076      C1077   1.403       .  A
C1076      H1085   1.083       .  S
C1077      C1078   1.416       .  A
C1077      H1086   1.083   1_556  S
C1078      C1079   1.417       .  A
C1079      C1080   1.399       .  A
C1079      H1087   1.079       .  S
C1080      H1088   1.084       .  S
C1089      C1090   1.408       .  A
C1089      C1094   1.406       .  A
C1090      C1091   1.400       .  A
C1090      H1103   1.083       .  S
C1091      C1092   1.400       .  A
C1091      H1104   1.084       .  S
C1092      C1093   1.404       .  A
C1092      C1095   1.448       .  S
C1093      C1094   1.405       .  A
C1093      H1105   1.083       .  S
C1094      H1106   1.083       .  S
C1095      C1096   1.211       .  T
C1096      C1097   1.448       .  S
C1097      C1098   1.404       .  A
C1097      C1102   1.399       .  A
C1098      C1099   1.405       .  A
C1098      H1107   1.083       .  S
C1099      C1100   1.406       .  A
C1099      H1108   1.083       .  S
C1100      C1101   1.408       .  A
C1101      C1102   1.398       .  A
C1101      H1109   1.083       .  S
C1102      H1110   1.084       .  S
C1111      C1112   1.405       .  A
C1111      C1116   1.406       .  A
C1112      C1113   1.398       .  A
C1112      H1125   1.083       .  S
C1113      C1114   1.400       .  A
C1113      H1126   1.083       .  S
C1114      C1115   1.399       .  A
C1114      C1117   1.436       .  S
C1115      C1116   1.396       .  A
C1115      H1127   1.084       .  S
C1116      H1128   1.083       .  S
C1117      C1118   1.204       .  T
C1118      C1119   1.436       .  S
C1119      C1120   1.399       .  A
C1119      C1124   1.399       .  A
C1120      C1121   1.398       .  A
C1120      H1129   1.084       .  S
C1121      C1122   1.406       .  A
C1121      H1130   1.083       .  S
C1122      C1123   1.405       .  A
C1123      C1124   1.397       .  A
C1123      H1131   1.083       .  S
C1124      H1132   1.084       .  S
C1133      C1134   1.408       .  A
C1133      C1138   1.407       .  A
C1134      C1135   1.400       .  A
C1134      H1147   1.083       .  S
C1135      C1136   1.400       .  A
C1135      H1148   1.084       .  S
C1136      C1137   1.404       .  A
C1136      C1139   1.450       .  S
C1137      C1138   1.406       .  A
C1137      H1149   1.083       .  S
C1138      H1150   1.083       .  S
C1139      C1140   1.212       .  T
C1140      C1141   1.450       .  S
C1141      C1142   1.397       .  A
C1141      C1146   1.401       .  A
C1142      C1143   1.398       .  A
C1142      H1151   1.083       .  S
C1143      C1144   1.417   1_556  A
C1143      H1152   1.083       .  S
C1144      C1145   1.415       .  A
C1145      C1146   1.405   1_554  A
C1145      H1153   1.079       .  S
C1146      H1154   1.083       .  S
C1155      C1156   1.406       .  A
C1155      C1160   1.407       .  A
C1156      C1157   1.397       .  A
C1156      H1169   1.083       .  S
C1157      C1158   1.398       .  A
C1157      H1170   1.084       .  S
C1158      C1159   1.403       .  A
C1158      C1161   1.444       .  S
C1159      C1160   1.404       .  A
C1159      H1171   1.083       .  S
C1160      H1172   1.083       .  S
C1161      C1162   1.209       .  T
C1162      C1163   1.444       .  S
C1163      C1164   1.396       .  A
C1163      C1168   1.400       .  A
C1164      C1165   1.397       .  A
C1164      H1173   1.083       .  S
C1165      C1166   1.417       .  A
C1165      H1174   1.083       .  S
C1166      C1167   1.415       .  A
C1167      C1168   1.402       .  A
C1167      H1175   1.079       .  S
C1168      H1176   1.083       .  S
C1177      C1178   1.406       .  A
C1177      C1182   1.408       .  A
C1178      C1179   1.404       .  A
C1178      H1191   1.083       .  S
C1179      C1180   1.403       .  A
C1179      H1192   1.083       .  S
C1180      C1181   1.399       .  A
C1180      C1183   1.445       .  S
C1181      C1182   1.398       .  A
C1181      H1193   1.084       .  S
C1182      H1194   1.083       .  S
C1183      C1184   1.209       .  T
C1184      C1185   1.445       .  S
C1185      C1186   1.404       .  A
C1185      C1190   1.398       .  A
C1186      C1187   1.404       .  A
C1186      H1195   1.083       .  S
C1187      C1188   1.406       .  A
C1187      H1196   1.083       .  S
C1188      C1189   1.407       .  A
C1189      C1190   1.397       .  A
C1189      H1197   1.083       .  S
C1190      H1198   1.084       .  S
C1199      C1200   1.405       .  A
C1199      C1204   1.405       .  A
C1200      C1201   1.397       .  A
C1200      H1213   1.083       .  S
C1201      C1202   1.399       .  A
C1201      H1214   1.084       .  S
C1202      C1203   1.399       .  A
C1202      C1205   1.435       .  S
C1203      C1204   1.397       .  A
C1203      H1215   1.084       .  S
C1204      H1216   1.083       .  S
C1205      C1206   1.203       .  T
C1206      C1207   1.435       .  S
C1207      C1208   1.398       .  A
C1207      C1212   1.400       .  A
C1208      C1209   1.395       .  A
C1208      H1217   1.084       .  S
C1209      C1210   1.405       .  A
C1209      H1218   1.083       .  S
C1210      C1211   1.405       .  A
C1211      C1212   1.398       .  A
C1211      H1219   1.083       .  S
C1212      H1220   1.083       .  S
C1221      C1222   1.415       .  A
C1221      C1226   1.419       .  A
C1222      C1223   1.401       .  A
C1222      H1235   1.083       .  S
C1223      C1224   1.399       .  A
C1223      H1236   1.083       .  S
C1224      C1225   1.398       .  A
C1224      C1227   1.449       .  S
C1225      C1226   1.402       .  A
C1225      H1237   1.084       .  S
C1226      H1238   1.079       .  S
C1227      C1228   1.212       .  T
C1228      C1229   1.449       .  S
C1229      C1230   1.402       .  A
C1229      C1234   1.401       .  A
C1230      C1231   1.404       .  A
C1230      H1239   1.083       .  S
C1231      C1232   1.408       .  A
C1231      H1240   1.083       .  S
C1232      C1233   1.407       .  A
C1233      C1234   1.401       .  A
C1233      H1241   1.083       .  S
C1234      H1242   1.083       .  S
C1243      C1244   1.417       .  A
C1243      C1248   1.416   1_554  A
C1244      C1245   1.402       .  A
C1244      H1257   1.079       .  S
C1245      C1246   1.399       .  A
C1245      H1258   1.083       .  S
C1246      C1247   1.396   1_554  A
C1246      C1249   1.444       .  S
C1247      C1248   1.397       .  A
C1247      H1259   1.084       .  S
C1248      H1260   1.083       .  S
C1249      C1250   1.209   1_455  T
C1250      C1251   1.444       .  S
C1251      C1252   1.398   1_554  A
C1251      C1256   1.398       .  A
C1252      C1253   1.398       .  A
C1252      H1261   1.083       .  S
C1253      C1254   1.415   1_556  A
C1253      H1262   1.083       .  S
C1254      C1255   1.415       .  A
C1255      C1256   1.400       .  A
C1255      H1263   1.080       .  S
C1256      H1264   1.083       .  S
C1265      C1266   1.416   1_554  A
C1265      C1270   1.417       .  A
C1266      C1267   1.397       .  A
C1266      H1279   1.083       .  S
C1267      C1268   1.397   1_556  A
C1267      H1280   1.083       .  S
C1268      C1269   1.398       .  A
C1268      C1271   1.443       .  S
C1269      C1270   1.400       .  A
C1269      H1281   1.084       .  S
C1270      H1282   1.079       .  S
C1271      C1272   1.208       .  T
C1272      C1273   1.443   1_455  S
C1273      C1274   1.396       .  A
C1273      C1278   1.399       .  A
C1274      C1275   1.396       .  A
C1274      H1283   1.084       .  S
C1275      C1276   1.416       .  A
C1275      H1284   1.079       .  S
C1276      C1277   1.416       .  A
C1277      C1278   1.402       .  A
C1277      H1285   1.083       .  S
C1278      H1286   1.083       .  S
C1287      C1288   1.416   1_554  A
C1287      C1292   1.417       .  A
C1288      C1289   1.400       .  A
C1288      H1301   1.079       .  S
C1289      C1290   1.398   1_556  A
C1289      H1302   1.084       .  S
C1290      C1291   1.396       .  A
C1290      C1293   1.442       .  S
C1291      C1292   1.397       .  A
C1291      H1303   1.084       .  S
C1292      H1304   1.083       .  S
C1293      C1294   1.207       .  T
C1294      C1295   1.442       .  S
C1295      C1296   1.397   1_554  A
C1295      C1300   1.397       .  A
C1296      C1297   1.398       .  A
C1296      H1305   1.084       .  S
C1297      C1298   1.418   1_556  A
C1297      H1306   1.079       .  S
C1298      C1299   1.416       .  A
C1299      C1300   1.399       .  A
C1299      H1307   1.083       .  S
C1300      H1308   1.083       .  S
C1309      C1310   1.409       .  A
C1309      C1314   1.406       .  A
C1310      C1311   1.400       .  A
C1310      H1323   1.083       .  S
C1311      C1312   1.400       .  A
C1311      H1324   1.084       .  S
C1312      C1313   1.404       .  A
C1312      C1315   1.449       .  S
C1313      C1314   1.405       .  A
C1313      H1325   1.083       .  S
C1314      H1326   1.083       .  S
C1315      C1316   1.212       .  T
C1316      C1317   1.449       .  S
C1317      C1318   1.399       .  A
C1317      C1322   1.404       .  A
C1318      C1319   1.398       .  A
C1318      H1327   1.084       .  S
C1319      C1320   1.408       .  A
C1319      H1328   1.083       .  S
C1320      C1321   1.406       .  A
C1321      C1322   1.405       .  A
C1321      H1329   1.083       .  S
C1322      H1330   1.083       .  S
C1331      C1332   1.408       .  A
C1331      C1336   1.407       .  A
C1332      C1333   1.401       .  A
C1332      H1345   1.083       .  S
C1333      C1334   1.401       .  A
C1333      H1346   1.083       .  S
C1334      C1335   1.404       .  A
C1334      C1337   1.452       .  S
C1335      C1336   1.406       .  A
C1335      H1347   1.083       .  S
C1336      H1348   1.083       .  S
C1337      C1338   1.213       .  T
C1338      C1339   1.452       .  S
C1339      C1340   1.400       .  A
C1339      C1344   1.399       .  A
C1340      C1341   1.402       .  A
C1340      H1349   1.083       .  S
C1341      C1342   1.415       .  A
C1341      H1350   1.083       .  S
C1342      C1343   1.417       .  A
C1343      C1344   1.402       .  A
C1343      H1351   1.080       .  S
C1344      H1352   1.083       .  S
C1353      C1354   1.405       .  A
C1353      C1358   1.405       .  A
C1354      C1355   1.394       .  A
C1354      H1367   1.083       .  S
C1355      C1356   1.398       .  A
C1355      H1368   1.084       .  S
C1356      C1357   1.400       .  A
C1356      C1359   1.434       .  S
C1357      C1358   1.398       .  A
C1357      H1369   1.083       .  S
C1358      H1370   1.083       .  S
C1359      C1360   1.202       .  T
C1360      C1361   1.434       .  S
C1361      C1362   1.400       .  A
C1361      C1366   1.398       .  A
C1362      C1363   1.398       .  A
C1362      H1371   1.083       .  S
C1363      C1364   1.405       .  A
C1363      H1372   1.083       .  S
C1364      C1365   1.405       .  A
C1365      C1366   1.394       .  A
C1365      H1373   1.083       .  S
C1366      H1374   1.084       .  S
C1375      C1376   1.408       .  A
C1375      C1380   1.406       .  A
C1376      C1377   1.400       .  A
C1376      H1389   1.083       .  S
C1377      C1378   1.400       .  A
C1377      H1390   1.083       .  S
C1378      C1379   1.402       .  A
C1378      C1381   1.447       .  S
C1379      C1380   1.403       .  A
C1379      H1391   1.083       .  S
C1380      H1392   1.083       .  S
C1381      C1382   1.210       .  T
C1382      C1383   1.447       .  S
C1383      C1384   1.399       .  A
C1383      C1388   1.399       .  A
C1384      C1385   1.401       .  A
C1384      H1393   1.083       .  S
C1385      C1386   1.416       .  A
C1385      H1394   1.080       .  S
C1386      C1387   1.415       .  A
C1387      C1388   1.400       .  A
C1387      H1395   1.083       .  S
C1388      H1396   1.083       .  S
C1397      C1398   1.408       .  A
C1397      C1402   1.408       .  A
C1398      C1399   1.406       .  A
C1398      H1411   1.083       .  S
C1399      C1400   1.404       .  A
C1399      H1412   1.083       .  S
C1400      C1401   1.401       .  A
C1400      C1403   1.453       .  S
C1401      C1402   1.402       .  A
C1401      H1413   1.083       .  S
C1402      H1414   1.083       .  S
C1403      C1404   1.214       .  T
C1404      C1405   1.452       .  S
C1405      C1406   1.398       .  A
C1405      C1410   1.400       .  A
C1406      C1407   1.401       .  A
C1406      H1415   1.084       .  S
C1407      C1408   1.417       .  A
C1407      H1416   1.079       .  S
C1408      C1409   1.416       .  A
C1409      C1410   1.404       .  A
C1409      H1417   1.083       .  S
C1410      H1418   1.083       .  S
C1419      C1420   1.408       .  A
C1419      C1424   1.407       .  A
C1420      C1421   1.400       .  A
C1420      H1433   1.083       .  S
C1421      C1422   1.399       .  A
C1421      H1434   1.084       .  S
C1422      C1423   1.405       .  A
C1422      C1425   1.451       .  S
C1423      C1424   1.406       .  A
C1423      H1435   1.083       .  S
C1424      H1436   1.083       .  S
C1425      C1426   1.213       .  T
C1426      C1427   1.450       .  S
C1427      C1428   1.399       .  A
C1427      C1432   1.405       .  A
C1428      C1429   1.399       .  A
C1428      H1437   1.084       .  S
C1429      C1430   1.408       .  A
C1429      H1438   1.083       .  S
C1430      C1431   1.407       .  A
C1431      C1432   1.406       .  A
C1431      H1439   1.083       .  S
C1432      H1440   1.083       .  S
C1441      C1442   1.405       .  A
C1441      C1446   1.405       .  A
C1442      C1443   1.395       .  A
C1442      H1455   1.083       .  S
C1443      C1444   1.399       .  A
C1443      H1456   1.084       .  S
C1444      C1445   1.399       .  A
C1444      C1447   1.434       .  S
C1445      C1446   1.397       .  A
C1445      H1457   1.083       .  S
C1446      H1458   1.083       .  S
C1447      C1448   1.203       .  T
C1448      C1449   1.434       .  S
C1449      C1450   1.399       .  A
C1449      C1454   1.398       .  A
C1450      C1451   1.398       .  A
C1450      H1459   1.083       .  S
C1451      C1452   1.406       .  A
C1451      H1460   1.083       .  S
C1452      C1453   1.405       .  A
C1453      C1454   1.395       .  A
C1453      H1461   1.083       .  S
C1454      H1462   1.084       .  S
C1463      C1464   1.417       .  A
C1463      C1468   1.415       .  A
C1464      C1465   1.399       .  A
C1464      H1477   1.079       .  S
C1465      C1466   1.397       .  A
C1465      H1478   1.084       .  S
C1466      C1467   1.401       .  A
C1466      C1469   1.449       .  S
C1467      C1468   1.404       .  A
C1467      H1479   1.083       .  S
C1468      H1480   1.083       .  S
C1469      C1470   1.212       .  T
C1470      C1471   1.450       .  S
C1471      C1472   1.404       .  A
C1471      C1476   1.400       .  A
C1472      C1473   1.405       .  A
C1472      H1481   1.083       .  S
C1473      C1474   1.407       .  A
C1473      H1482   1.083       .  S
C1474      C1475   1.408       .  A
C1475      C1476   1.400       .  A
C1475      H1483   1.083       .  S
C1476      H1484   1.084       .  S
C1485      C1486   1.416       .  A
C1485      C1490   1.416       .  A
C1486      C1487   1.401       .  A
C1486      H1499   1.083       .  S
C1487      C1488   1.399       .  A
C1487      H1500   1.083       .  S
C1488      C1489   1.396       .  A
C1488      C1491   1.443   1_556  S
C1489      C1490   1.396       .  A
C1489      H1501   1.084       .  S
C1490      H1502   1.080       .  S
C1491      C1492   1.208       .  T
C1492      C1493   1.443       .  S
C1493      C1494   1.396       .  A
C1493      C1498   1.398       .  A
C1494      C1495   1.399       .  A
C1494      H1503   1.084       .  S
C1495      C1496   1.417       .  A
C1495      H1504   1.079       .  S
C1496      C1497   1.415       .  A
C1497      C1498   1.399       .  A
C1497      H1505   1.083       .  S
C1498      H1506   1.083       .  S
C1507      C1508   1.406       .  A
C1507      C1512   1.406       .  A
C1508      C1509   1.396       .  A
C1508      H1521   1.083       .  S
C1509      C1510   1.398       .  A
C1509      H1522   1.084       .  S
C1510      C1511   1.402       .  A
C1510      C1513   1.439       .  S
C1511      C1512   1.401       .  A
C1511      H1523   1.083       .  S
C1512      H1524   1.083       .  S
C1513      C1514   1.206       .  T
C1514      C1515   1.439       .  S
C1515      C1516   1.398       .  A
C1515      C1520   1.402       .  A
C1516      C1517   1.395       .  A
C1516      H1525   1.084       .  S
C1517      C1518   1.406       .  A
C1517      H1526   1.083       .  S
C1518      C1519   1.405       .  A
C1519      C1520   1.402       .  A
C1519      H1527   1.083       .  S
C1520      H1528   1.083       .  S
C1529      C1530   1.408       .  A
C1529      C1534   1.408       .  A
C1530      C1531   1.406       .  A
C1530      H1543   1.083       .  S
C1531      C1532   1.404       .  A
C1531      H1544   1.083       .  S
C1532      C1533   1.400       .  A
C1532      C1535   1.452       .  S
C1533      C1534   1.400       .  A
C1533      H1545   1.084       .  S
C1534      H1546   1.083       .  S
C1535      C1536   1.213       .  T
C1536      C1537   1.452       .  S
C1537      C1538   1.401       .  A
C1537      C1542   1.398       .  A
C1538      C1539   1.404       .  A
C1538      H1547   1.083       .  S
C1539      C1540   1.417       .  A
C1539      H1548   1.079       .  S
C1540      C1541   1.416       .  A
C1541      C1542   1.400       .  A
C1541      H1549   1.083       .  S
C1542      H1550   1.083       .  S
C1551      C1552   1.407       .  A
C1551      C1556   1.406       .  A
C1552      C1553   1.398       .  A
C1552      H1565   1.083       .  S
C1553      C1554   1.399       .  A
C1553      H1566   1.084       .  S
C1554      C1555   1.402       .  A
C1554      C1557   1.444       .  S
C1555      C1556   1.403       .  A
C1555      H1567   1.083       .  S
C1556      H1568   1.083       .  S
C1557      C1558   1.209       .  T
C1558      C1559   1.444       .  S
C1559      C1560   1.403       .  A
C1559      C1564   1.398       .  A
C1560      C1561   1.404       .  A
C1560      H1569   1.083       .  S
C1561      C1562   1.407       .  A
C1561      H1570   1.083       .  S
C1562      C1563   1.407       .  A
C1563      C1564   1.397       .  A
C1563      H1571   1.083       .  S
C1564      H1572   1.084       .  S
C1573      C1574   1.404       .  A
C1573      C1578   1.407       .  A
C1574      C1575   1.394       .  A
C1574      H1587   1.083       .  S
C1575      C1576   1.399       .  A
C1575      H1588   1.084       .  S
C1576      C1577   1.400       .  A
C1576      C1579   1.435   1_556  S
C1577      C1578   1.399       .  A
C1577      H1589   1.083       .  S
C1578      H1590   1.083       .  S
C1579      C1580   1.203       .  T
C1580      C1581   1.435       .  S
C1581      C1582   1.399       .  A
C1581      C1586   1.399       .  A
C1582      C1583   1.399       .  A
C1582      H1591   1.083       .  S
C1583      C1584   1.407       .  A
C1583      H1592   1.083       .  S
C1584      C1585   1.404       .  A
C1585      C1586   1.395       .  A
C1585      H1593   1.083       .  S
C1586      H1594   1.084       .  S
C1595      C1596   1.408       .  A
C1595      C1600   1.407       .  A
C1596      C1597   1.405       .  A
C1596      H1609   1.083       .  S
C1597      C1598   1.404       .  A
C1597      H1610   1.083       .  S
C1598      C1599   1.399       .  A
C1598      C1601   1.447       .  S
C1599      C1600   1.398       .  A
C1599      H1611   1.084       .  S
C1600      H1612   1.083       .  S
C1601      C1602   1.211       .  T
C1602      C1603   1.447       .  S
C1603      C1604   1.401       .  A
C1603      C1608   1.396       .  A
C1604      C1605   1.404       .  A
C1604      H1613   1.083       .  S
C1605      C1606   1.415       .  A
C1605      H1614   1.079       .  S
C1606      C1607   1.417       .  A
C1607      C1608   1.397       .  A
C1607      H1615   1.083       .  S
C1608      H1616   1.084       .  S
C1617      C1618   1.406       .  A
C1617      C1622   1.406       .  A
C1618      C1619   1.396       .  A
C1618      H1631   1.083       .  S
C1619      C1620   1.399       .  A
C1619      H1632   1.084       .  S
C1620      C1621   1.402       .  A
C1620      C1623   1.442       .  S
C1621      C1622   1.403       .  A
C1621      H1633   1.083       .  S
C1622      H1634   1.083       .  S
C1623      C1624   1.208       .  T
C1624      C1625   1.442       .  S
C1625      C1626   1.399       .  A
C1625      C1630   1.402       .  A
C1626      C1627   1.398       .  A
C1626      H1635   1.084       .  S
C1627      C1628   1.407       .  A
C1627      H1636   1.083       .  S
C1628      C1629   1.406       .  A
C1629      C1630   1.402       .  A
C1629      H1637   1.083       .  S
C1630      H1638   1.083       .  S
C1639      C1640   1.406       .  A
C1639      C1644   1.408       .  A
C1640      C1641   1.404       .  A
C1640      H1653   1.083       .  S
C1641      C1642   1.403       .  A
C1641      H1654   1.083       .  S
C1642      C1643   1.400       .  A
C1642      C1645   1.449       .  S
C1643      C1644   1.400       .  A
C1643      H1655   1.084       .  S
C1644      H1656   1.083       .  S
C1645      C1646   1.212       .  T
C1646      C1647   1.449       .  S
C1647      C1648   1.400       .  A
C1647      C1652   1.397       .  A
C1648      C1649   1.404       .  A
C1648      H1657   1.083       .  S
C1649      C1650   1.415       .  A
C1649      H1658   1.083       .  S
C1650      C1651   1.418       .  A
C1651      C1652   1.399       .  A
C1651      H1659   1.079       .  S
C1652      H1660   1.084       .  S
C1661      C1662   1.406       .  A
C1661      C1666   1.405       .  A
C1662      C1663   1.401       .  A
C1662      H1675   1.083       .  S
C1663      C1664   1.401       .  A
C1663      H1676   1.083       .  S
C1664      C1665   1.398       .  A
C1664      C1667   1.438       .  S
C1665      C1666   1.394       .  A
C1665      H1677   1.084       .  S
C1666      H1678   1.083       .  S
C1667      C1668   1.205       .  T
C1668      C1669   1.438       .  S
C1669      C1670   1.401       .  A
C1669      C1674   1.399       .  A
C1670      C1671   1.399       .  A
C1670      H1679   1.083       .  S
C1671      C1672   1.404       .  A
C1671      H1680   1.083       .  S
C1672      C1673   1.407       .  A
C1673      C1674   1.398       .  A
C1673      H1681   1.083       .  S
C1674      H1682   1.084       .  S
C1683      C1684   1.404       .  A
C1683      C1688   1.406       .  A
C1684      C1685   1.393       .  A
C1684      H1697   1.083       .  S
C1685      C1686   1.398       .  A
C1685      H1698   1.084       .  S
C1686      C1687   1.401       .  A
C1686      C1689   1.436       .  S
C1687      C1688   1.400       .  A
C1687      H1699   1.083       .  S
C1688      H1700   1.083       .  S
C1689      C1690   1.204   1_556  T
C1690      C1691   1.436       .  S
C1691      C1692   1.399       .  A
C1691      C1696   1.400       .  A
C1692      C1693   1.398       .  A
C1692      H1701   1.083       .  S
C1693      C1694   1.406       .  A
C1693      H1702   1.083       .  S
C1694      C1695   1.405       .  A
C1695      C1696   1.397       .  A
C1695      H1703   1.083       .  S
C1696      H1704   1.084       .  S
C1705      C1706   1.407       .  A
C1705      C1710   1.408       .  A
C1706      C1707   1.404       .  A
C1706      H1719   1.083       .  S
C1707      C1708   1.403       .  A
C1707      H1720   1.083       .  S
C1708      C1709   1.402       .  A
C1708      C1711   1.452       .  S
C1709      C1710   1.403       .  A
C1709      H1721   1.083       .  S
C1710      H1722   1.083       .  S
C1711      C1712   1.213       .  T
C1712      C1713   1.452       .  S
C1713      C1714   1.399       .  A
C1713      C1718   1.399       .  A
C1714      C1715   1.402       .  A
C1714      H1723   1.083       .  S
C1715      C1716   1.416       .  A
C1715      H1724   1.083       .  S
C1716      C1717   1.418       .  A
C1717      C1718   1.402       .  A
C1717      H1725   1.079       .  S
C1718      H1726   1.084       .  S
C1727      C1728   1.417       .  A
C1727      C1732   1.417       .  A
C1728      C1729   1.395       .  A
C1728      H1741   1.078       .  S
C1729      C1730   1.395       .  A
C1729      H1742   1.084       .  S
C1730      C1731   1.398       .  A
C1730      C1733   1.442       .  S
C1731      C1732   1.402       .  A
C1731      H1743   1.083       .  S
C1732      H1744   1.083       .  S
C1733      C1734   1.207       .  T
C1734      C1735   1.441       .  S
C1735      C1736   1.398       .  A
C1735      C1740   1.396       .  A
C1736      C1737   1.401       .  A
C1736      H1745   1.083       .  S
C1737      C1738   1.416       .  A
C1737      H1746   1.083       .  S
C1738      C1739   1.416       .  A
C1739      C1740   1.395       .  A
C1739      H1747   1.079       .  S
C1740      H1748   1.084       .  S
C1749      C1750   1.417       .  A
C1749      C1754   1.416       .  A
C1750      C1751   1.398       .  A
C1750      H1763   1.083       .  S
C1751      C1752   1.397       .  A
C1751      H1764   1.083       .  S
C1752      C1753   1.397       .  A
C1752      C1755   1.440   1_556  S
C1753      C1754   1.397       .  A
C1753      H1765   1.084       .  S
C1754      H1766   1.079       .  S
C1755      C1756   1.206       .  T
C1756      C1757   1.440       .  S
C1757      C1758   1.397       .  A
C1757      C1762   1.396       .  A
C1758      C1759   1.400       .  A
C1758      H1767   1.084       .  S
C1759      C1760   1.417       .  A
C1759      H1768   1.079       .  S
C1760      C1761   1.415       .  A
C1761      C1762   1.396       .  A
C1761      H1769   1.083       .  S
C1762      H1770   1.084       .  S
C1771      C1772   1.416       .  A
C1771      C1776   1.416       .  A
C1772      C1773   1.403       .  A
C1772      H1785   1.079       .  S
C1773      C1774   1.399       .  A
C1773      H1786   1.083       .  S
C1774      C1775   1.399       .  A
C1774      C1777   1.449       .  S
C1775      C1776   1.400       .  A
C1775      H1787   1.083       .  S
C1776      H1788   1.083       .  S
C1777      C1778   1.212       .  T
C1778      C1779   1.449       .  S
C1779      C1780   1.398       .  A
C1779      C1784   1.401       .  A
C1780      C1781   1.399       .  A
C1780      H1789   1.083       .  S
C1781      C1782   1.416       .  A
C1781      H1790   1.083       .  S
C1782      C1783   1.416       .  A
C1783      C1784   1.404       .  A
C1783      H1791   1.080       .  S
C1784      H1792   1.083       .  S
C1793      C1794   1.406       .  A
C1793      C1798   1.406       .  A
C1794      C1795   1.396       .  A
C1794      H1807   1.083       .  S
C1795      C1796   1.398       .  A
C1795      H1808   1.084       .  S
C1796      C1797   1.402       .  A
C1796      C1799   1.441       .  S
C1797      C1798   1.402       .  A
C1797      H1809   1.083       .  S
C1798      H1810   1.083       .  S
C1799      C1800   1.207       .  T
C1800      C1801   1.441       .  S
C1801      C1802   1.399       .  A
C1801      C1806   1.402       .  A
C1802      C1803   1.397       .  A
C1802      H1811   1.084       .  S
C1803      C1804   1.407       .  A
C1803      H1812   1.083       .  S
C1804      C1805   1.405       .  A
C1805      C1806   1.401       .  A
C1805      H1813   1.083       .  S
C1806      H1814   1.083       .  S
C1815      C1816   1.409       .  A
C1815      C1820   1.407       .  A
C1816      C1817   1.402       .  A
C1816      H1829   1.083       .  S
C1817      C1818   1.401       .  A
C1817      H1830   1.083       .  S
C1818      C1819   1.403       .  A
C1818      C1821   1.451       .  S
C1819      C1820   1.405       .  A
C1819      H1831   1.083       .  S
C1820      H1832   1.083       .  S
C1821      C1822   1.213       .  T
C1822      C1823   1.451       .  S
C1823      C1824   1.397       .  A
C1823      C1828   1.401       .  A
C1824      C1825   1.399       .  A
C1824      H1833   1.083       .  S
C1825      C1826   1.417       .  A
C1825      H1834   1.083       .  S
C1826      C1827   1.417       .  A
C1827      C1828   1.405       .  A
C1827      H1835   1.079       .  S
C1828      H1836   1.083       .  S
C1837      C1838   1.407       .  A
C1837      C1842   1.405       .  A
C1838      C1839   1.398       .  A
C1838      H1851   1.083       .  S
C1839      C1840   1.399       .  A
C1839      H1852   1.084       .  S
C1840      C1841   1.401       .  A
C1840      C1843   1.440       .  S
C1841      C1842   1.400       .  A
C1841      H1853   1.083       .  S
C1842      H1854   1.083       .  S
C1843      C1844   1.206       .  T
C1844      C1845   1.440       .  S
C1845      C1846   1.399       .  A
C1845      C1850   1.401       .  A
C1846      C1847   1.396       .  A
C1846      H1855   1.084       .  S
C1847      C1848   1.406       .  A
C1847      H1856   1.083       .  S
C1848      C1849   1.406       .  A
C1849      C1850   1.402       .  A
C1849      H1857   1.083       .  S
C1850      H1858   1.083       .  S
C1859      C1860   1.406       .  A
C1859      C1864   1.405       .  A
C1860      C1861   1.399       .  A
C1860      H1873   1.083       .  S
C1861      C1862   1.399       .  A
C1861      H1874   1.083       .  S
C1862      C1863   1.399       .  A
C1862      C1865   1.437       .  S
C1863      C1864   1.396       .  A
C1863      H1875   1.084       .  S
C1864      H1876   1.083       .  S
C1865      C1866   1.204       .  T
C1866      C1867   1.436   1_554  S
C1867      C1868   1.399       .  A
C1867      C1872   1.400       .  A
C1868      C1869   1.395       .  A
C1868      H1877   1.084       .  S
C1869      C1870   1.404       .  A
C1869      H1878   1.083       .  S
C1870      C1871   1.406       .  A
C1871      C1872   1.400       .  A
C1871      H1879   1.083       .  S
C1872      H1880   1.083       .  S
C1881      C1882   1.407       .  A
C1881      C1886   1.407       .  A
C1882      C1883   1.399       .  A
C1882      H1895   1.083       .  S
C1883      C1884   1.400       .  A
C1883      H1896   1.084       .  S
C1884      C1885   1.403       .  A
C1884      C1887   1.448       .  S
C1885      C1886   1.405       .  A
C1885      H1897   1.083       .  S
C1886      H1898   1.083       .  S
C1887      C1888   1.211       .  T
C1888      C1889   1.448       .  S
C1889      C1890   1.397       .  A
C1889      C1894   1.401       .  A
C1890      C1891   1.397       .  A
C1890      H1899   1.083       .  S
C1891      C1892   1.416       .  A
C1891      H1900   1.083       .  S
C1892      C1893   1.415       .  A
C1893      C1894   1.404       .  A
C1893      H1901   1.079       .  S
C1894      H1902   1.083       .  S
C1903      C1904   1.407       .  A
C1903      C1908   1.407       .  A
C1904      C1905   1.404       .  A
C1904      H1917   1.083       .  S
C1905      C1906   1.403       .  A
C1905      H1918   1.083       .  S
C1906      C1907   1.399       .  A
C1906      C1909   1.444       .  S
C1907      C1908   1.397       .  A
C1907      H1919   1.084       .  S
C1908      H1920   1.083       .  S
C1909      C1910   1.209       .  T
C1910      C1911   1.444       .  S
C1911      C1912   1.403       .  A
C1911      C1916   1.399       .  A
C1912      C1913   1.403       .  A
C1912      H1921   1.083       .  S
C1913      C1914   1.406       .  A
C1913      H1922   1.083       .  S
C1914      C1915   1.407       .  A
C1915      C1916   1.397       .  A
C1915      H1923   1.083       .  S
C1916      H1924   1.084       .  S
C1925      C1926   1.407       .  A
C1925      C1930   1.407       .  A
C1926      C1927   1.405       .  A
C1926      H1939   1.083       .  S
C1927      C1928   1.403       .  A
C1927      H1940   1.083       .  S
C1928      C1929   1.401       .  A
C1928      C1931   1.450       .  S
C1929      C1930   1.401       .  A
C1929      H1941   1.083       .  S
C1930      H1942   1.083       .  S
C1931      C1932   1.212       .  T
C1932      C1933   1.450       .  S
C1933      C1934   1.401       .  A
C1933      C1938   1.397       .  A
C1934      C1935   1.405       .  A
C1934      H1943   1.083       .  S
C1935      C1936   1.415       .  A
C1935      H1944   1.083       .  S
C1936      C1937   1.419       .  A
C1937      C1938   1.399       .  A
C1937      H1945   1.079       .  S
C1938      H1946   1.084       .  S
C1947      C1948   1.407       .  A
C1947      C1952   1.407       .  A
C1948      C1949   1.398       .  A
C1948      H1961   1.083       .  S
C1949      C1950   1.400       .  A
C1949      H1962   1.084       .  S
C1950      C1951   1.403       .  A
C1950      C1953   1.447       .  S
C1951      C1952   1.405       .  A
C1951      H1963   1.083       .  S
C1952      H1964   1.083       .  S
C1953      C1954   1.210       .  T
C1954      C1955   1.447       .  S
C1955      C1956   1.401       .  A
C1955      C1960   1.402       .  A
C1956      C1957   1.400       .  A
C1956      H1965   1.083       .  S
C1957      C1958   1.407       .  A
C1957      H1966   1.083       .  S
C1958      C1959   1.406       .  A
C1959      C1960   1.402       .  A
C1959      H1967   1.083       .  S
C1960      H1968   1.083       .  S
C1969      C1970   1.404       .  A
C1969      C1974   1.407       .  A
C1970      C1971   1.394       .  A
C1970      H1983   1.083       .  S
C1971      C1972   1.398       .  A
C1971      H1984   1.084       .  S
C1972      C1973   1.400       .  A
C1972      C1975   1.435       .  S
C1973      C1974   1.399       .  A
C1973      H1985   1.083       .  S
C1974      H1986   1.083       .  S
C1975      C1976   1.203   1_554  T
C1976      C1977   1.435       .  S
C1977      C1978   1.399       .  A
C1977      C1982   1.399       .  A
C1978      C1979   1.398       .  A
C1978      H1987   1.083       .  S
C1979      C1980   1.406       .  A
C1979      H1988   1.083       .  S
C1980      C1981   1.404       .  A
C1981      C1982   1.396       .  A
C1981      H1989   1.083       .  S
C1982      H1990   1.084       .  S
C1991      C1992   1.415       .  A
C1991      C1996   1.418       .  A
C1992      C1993   1.402       .  A
C1992      H2005   1.083       .  S
C1993      C1994   1.399       .  A
C1993      H2006   1.083       .  S
C1994      C1995   1.396       .  A
C1994      C1997   1.447       .  S
C1995      C1996   1.398       .  A
C1995      H2007   1.084       .  S
C1996      H2008   1.079       .  S
C1997      C1998   1.210       .  T
C1998      C1999   1.447       .  S
C1999      C2000   1.403       .  A
C1999      C2004   1.400       .  A
C2000      C2001   1.403       .  A
C2000      H2009   1.083       .  S
C2001      C2002   1.407       .  A
C2001      H2010   1.083       .  S
C2002      C2003   1.407       .  A
C2003      C2004   1.400       .  A
C2003      H2011   1.083       .  S
C2004      H2012   1.083       .  S
C2013      C2014   1.417       .  A
C2013      C2018   1.416   1_565  A
C2014      C2015   1.401       .  A
C2014      H2027   1.079       .  S
C2015      C2016   1.398       .  A
C2015      H2028   1.083       .  S
C2016      C2017   1.397   1_565  A
C2016      C2019   1.445       .  S
C2017      C2018   1.399       .  A
C2017      H2029   1.083       .  S
C2018      H2030   1.083       .  S
C2019      C2020   1.209       .  T
C2020      C2021   1.445       .  S
C2021      C2022   1.398       .  A
C2021      C2026   1.398       .  A
C2022      C2023   1.400   1_565  A
C2022      H2031   1.084   1_565  S
C2023      C2024   1.416   1_545  A
C2023      H2032   1.079       .  S
C2024      C2025   1.416       .  A
C2025      C2026   1.399       .  A
C2025      H2033   1.083       .  S
C2026      H2034   1.083       .  S
C2035      C2036   1.407       .  A
C2035      C2040   1.407       .  A
C2036      C2037   1.398       .  A
C2036      H2049   1.083       .  S
C2037      C2038   1.399       .  A
C2037      H2050   1.084       .  S
C2038      C2039   1.403       .  A
C2038      C2041   1.446       .  S
C2039      C2040   1.404       .  A
C2039      H2051   1.083       .  S
C2040      H2052   1.083       .  S
C2041      C2042   1.210       .  T
C2042      C2043   1.446       .  S
C2043      C2044   1.399       .  A
C2043      C2048   1.403       .  A
C2044      C2045   1.399       .  A
C2044      H2053   1.084       .  S
C2045      C2046   1.408       .  A
C2045      H2054   1.083       .  S
C2046      C2047   1.405       .  A
C2047      C2048   1.404       .  A
C2047      H2055   1.083       .  S
C2048      H2056   1.083       .  S
C2057      C2058   1.408       .  A
C2057      C2062   1.407       .  A
C2058      C2059   1.399       .  A
C2058      H2071   1.083       .  S
C2059      C2060   1.400       .  A
C2059      H2072   1.084       .  S
C2060      C2061   1.403       .  A
C2060      C2063   1.447       .  S
C2061      C2062   1.404       .  A
C2061      H2073   1.083       .  S
C2062      H2074   1.083       .  S
C2063      C2064   1.210       .  T
C2064      C2065   1.447       .  S
C2065      C2066   1.398       .  A
C2065      C2070   1.398       .  A
C2066      C2067   1.401       .  A
C2066      H2075   1.084       .  S
C2067      C2068   1.417       .  A
C2067      H2076   1.079       .  S
C2068      C2069   1.416       .  A
C2069      C2070   1.400       .  A
C2069      H2077   1.083       .  S
C2070      H2078   1.083       .  S
C2079      C2080   1.407       .  A
C2079      C2084   1.408       .  A
C2080      C2081   1.405       .  A
C2080      H2093   1.083       .  S
C2081      C2082   1.404       .  A
C2081      H2094   1.083       .  S
C2082      C2083   1.398       .  A
C2082      C2085   1.447       .  S
C2083      C2084   1.398       .  A
C2083      H2095   1.084       .  S
C2084      H2096   1.083       .  S
C2085      C2086   1.211       .  T
C2086      C2087   1.447       .  S
C2087      C2088   1.404       .  A
C2087      C2092   1.399       .  A
C2088      C2089   1.405       .  A
C2088      H2097   1.083       .  S
C2089      C2090   1.406       .  A
C2089      H2098   1.083       .  S
C2090      C2091   1.408       .  A
C2091      C2092   1.398       .  A
C2091      H2099   1.083       .  S
C2092      H2100   1.084       .  S
C2101      C2102   1.406       .  A
C2101      C2106   1.406       .  A
C2102      C2103   1.395       .  A
C2102      H2115   1.083       .  S
C2103      C2104   1.398       .  A
C2103      H2116   1.084       .  S
C2104      C2105   1.401       .  A
C2104      C2107   1.438       .  S
C2105      C2106   1.401       .  A
C2105      H2117   1.083       .  S
C2106      H2118   1.083       .  S
C2107      C2108   1.205       .  T
C2108      C2109   1.437       .  S
C2109      C2110   1.399       .  A
C2109      C2114   1.400       .  A
C2110      C2111   1.399       .  A
C2110      H2119   1.083       .  S
C2111      C2112   1.406       .  A
C2111      H2120   1.083       .  S
C2112      C2113   1.405       .  A
C2113      C2114   1.397       .  A
C2113      H2121   1.083       .  S
C2114      H2122   1.084       .  S
C2123      C2124   1.408       .  A
C2123      C2128   1.407       .  A
C2124      C2125   1.407       .  A
C2124      H2137   1.083       .  S
C2125      C2126   1.405       .  A
C2125      H2138   1.083       .  S
C2126      C2127   1.399       .  A
C2126      C2129   1.450       .  S
C2127      C2128   1.398       .  A
C2127      H2139   1.084       .  S
C2128      H2140   1.083       .  S
C2129      C2130   1.212       .  T
C2130      C2131   1.450       .  S
C2131      C2132   1.400       .  A
C2131      C2136   1.398       .  A
C2132      C2133   1.402       .  A
C2132      H2141   1.083       .  S
C2133      C2134   1.415       .  A
C2133      H2142   1.083       .  S
C2134      C2135   1.417       .  A
C2135      C2136   1.401       .  A
C2135      H2143   1.079       .  S
C2136      H2144   1.083       .  S
C2145      C2146   1.405       .  A
C2145      C2150   1.408       .  A
C2146      C2147   1.404       .  A
C2146      H2159   1.083       .  S
C2147      C2148   1.404       .  A
C2147      H2160   1.083       .  S
C2148      C2149   1.400       .  A
C2148      C2151   1.449       .  S
C2149      C2150   1.400       .  A
C2149      H2161   1.083       .  S
C2150      H2162   1.083       .  S
C2151      C2152   1.211       .  T
C2152      C2153   1.449       .  S
C2153      C2154   1.403       .  A
C2153      C2158   1.400       .  A
C2154      C2155   1.405       .  A
C2154      H2163   1.083       .  S
C2155      C2156   1.407       .  A
C2155      H2164   1.083       .  S
C2156      C2157   1.407       .  A
C2157      C2158   1.399       .  A
C2157      H2165   1.083       .  S
C2158      H2166   1.084       .  S
C2167      C2168   1.407       .  A
C2167      C2172   1.407       .  A
C2168      C2169   1.399       .  A
C2168      H2181   1.083       .  S
C2169      C2170   1.400       .  A
C2169      H2182   1.084       .  S
C2170      C2171   1.403       .  A
C2170      C2173   1.447       .  S
C2171      C2172   1.404       .  A
C2171      H2183   1.083       .  S
C2172      H2184   1.083       .  S
C2173      C2174   1.210       .  T
C2174      C2175   1.447       .  S
C2175      C2176   1.397       .  A
C2175      C2180   1.399       .  A
C2176      C2177   1.398       .  A
C2176      H2185   1.083       .  S
C2177      C2178   1.415       .  A
C2177      H2186   1.083       .  S
C2178      C2179   1.417       .  A
C2179      C2180   1.403       .  A
C2179      H2187   1.079   1_545  S
C2180      H2188   1.083       .  S
C2189      C2190   1.406       .  A
C2189      C2194   1.408       .  A
C2190      C2191   1.405       .  A
C2190      H2203   1.083       .  S
C2191      C2192   1.404       .  A
C2191      H2204   1.083       .  S
C2192      C2193   1.399       .  A
C2192      C2195   1.449       .  S
C2193      C2194   1.399       .  A
C2193      H2205   1.084       .  S
C2194      H2206   1.083       .  S
C2195      C2196   1.212       .  T
C2196      C2197   1.449       .  S
C2197      C2198   1.404       .  A
C2197      C2202   1.399       .  A
C2198      C2199   1.405       .  A
C2198      H2207   1.083       .  S
C2199      C2200   1.406       .  A
C2199      H2208   1.083       .  S
C2200      C2201   1.408       .  A
C2201      C2202   1.399       .  A
C2201      H2209   1.083       .  S
C2202      H2210   1.084       .  S
C2211      C2212   1.405       .  A
C2211      C2216   1.406       .  A
C2212      C2213   1.396       .  A
C2212      H2225   1.083       .  S
C2213      C2214   1.399       .  A
C2213      H2226   1.084       .  S
C2214      C2215   1.399       .  A
C2214      C2217   1.435       .  S
C2215      C2216   1.397       .  A
C2215      H2227   1.083       .  S
C2216      H2228   1.083       .  S
C2217      C2218   1.203       .  T
C2218      C2219   1.436       .  S
C2219      C2220   1.399       .  A
C2219      C2224   1.399       .  A
C2220      C2221   1.398       .  A
C2220      H2229   1.083       .  S
C2221      C2222   1.406       .  A
C2221      H2230   1.083       .  S
C2222      C2223   1.405       .  A
C2223      C2224   1.396       .  A
C2223      H2231   1.083       .  S
C2224      H2232   1.084       .  S
C2233      C2234   1.416       .  A
C2233      C2238   1.416       .  A
C2234      C2235   1.399       .  A
C2234      H2247   1.079       .  S
C2235      C2236   1.397       .  A
C2235      H2248   1.084       .  S
C2236      C2237   1.400       .  A
C2236      C2239   1.448       .  S
C2237      C2238   1.404       .  A
C2237      H2249   1.083       .  S
C2238      H2250   1.083       .  S
C2239      C2240   1.211       .  T
C2240      C2241   1.448       .  S
C2241      C2242   1.403       .  A
C2241      C2246   1.400       .  A
C2242      C2243   1.404       .  A
C2242      H2251   1.083       .  S
C2243      C2244   1.407       .  A
C2243      H2252   1.083       .  S
C2244      C2245   1.407       .  A
C2245      C2246   1.400       .  A
C2245      H2253   1.083       .  S
C2246      H2254   1.083       .  S
C2255      C2256   1.417       .  A
C2255      C2260   1.417       .  A
C2256      C2257   1.405       .  A
C2256      H2269   1.083       .  S
C2257      C2258   1.400       .  A
C2257      H2270   1.083       .  S
C2258      C2259   1.395       .  A
C2258      C2261   1.445   1_556  S
C2259      C2260   1.394       .  A
C2259      H2271   1.084       .  S
C2260      H2272   1.079       .  S
C2261      C2262   1.209       .  T
C2262      C2263   1.445       .  S
C2263      C2264   1.396       .  A
C2263      C2268   1.399       .  A
C2264      C2265   1.396       .  A
C2264      H2273   1.084       .  S
C2265      C2266   1.416       .  A
C2265      H2274   1.079       .  S
C2266      C2267   1.417       .  A
C2267      C2268   1.403       .  A
C2267      H2275   1.083       .  S
C2268      H2276   1.083       .  S
C2277      C2278   1.415   1_565  A
C2277      C2282   1.415       .  A
C2278      C2279   1.401       .  A
C2278      H2291   1.079       .  S
C2279      C2280   1.399   1_545  A
C2279      H2292   1.083       .  S
C2280      C2281   1.397       .  A
C2280      C2283   1.444       .  S
C2281      C2282   1.397       .  A
C2281      H2293   1.083       .  S
C2282      H2294   1.083       .  S
C2283      C2284   1.209   1_554  T
C2284      C2285   1.445       .  S
C2285      C2286   1.397       .  A
C2285      C2290   1.399   1_565  A
C2286      C2287   1.397       .  A
C2286      H2295   1.083       .  S
C2287      C2288   1.416       .  A
C2287      H2296   1.083       .  S
C2288      C2289   1.417   1_565  A
C2289      C2290   1.401       .  A
C2289      H2297   1.079       .  S
C2290      H2298   1.083       .  S
C2299      C2300   1.417   1_565  A
C2299      C2304   1.415       .  A
C2300      C2301   1.396       .  A
C2300      H2313   1.080       .  S
C2301      C2302   1.396   1_545  A
C2301      H2314   1.084       .  S
C2302      C2303   1.399       .  A
C2302      C2305   1.444   1_565  S
C2303      C2304   1.402       .  A
C2303      H2315   1.083       .  S
C2304      H2316   1.083       .  S
C2305      C2306   1.209       .  T
C2306      C2307   1.444       .  S
C2307      C2308   1.397   1_545  A
C2307      C2312   1.398       .  A
C2308      C2309   1.400       .  A
C2308      H2317   1.084       .  S
C2309      C2310   1.417       .  A
C2309      H2318   1.080       .  S
C2310      C2311   1.415   1_565  A
C2311      C2312   1.399       .  A
C2311      H2319   1.083       .  S
C2312      H2320   1.083       .  S
C2321      C2322   1.406       .  A
C2321      C2326   1.408       .  A
C2322      C2323   1.404       .  A
C2322      H2335   1.083       .  S
C2323      C2324   1.403       .  A
C2323      H2336   1.083       .  S
C2324      C2325   1.398       .  A
C2324      C2327   1.445       .  S
C2325      C2326   1.397       .  A
C2325      H2337   1.084       .  S
C2326      H2338   1.083       .  S
C2327      C2328   1.209       .  T
C2328      C2329   1.445       .  S
C2329      C2330   1.404       .  A
C2329      C2334   1.398       .  A
C2330      C2331   1.404       .  A
C2330      H2339   1.083       .  S
C2331      C2332   1.406       .  A
C2331      H2340   1.083       .  S
C2332      C2333   1.408       .  A
C2333      C2334   1.397       .  A
C2333      H2341   1.083       .  S
C2334      H2342   1.084       .  S
C2343      C2344   1.407       .  A
C2343      C2348   1.408       .  A
C2344      C2345   1.405       .  A
C2344      H2357   1.083       .  S
C2345      C2346   1.403       .  A
C2345      H2358   1.083       .  S
C2346      C2347   1.400       .  A
C2346      C2349   1.449       .  S
C2347      C2348   1.399       .  A
C2347      H2359   1.084       .  S
C2348      H2360   1.083       .  S
C2349      C2350   1.212       .  T
C2350      C2351   1.449       .  S
C2351      C2352   1.398       .  A
C2351      C2356   1.399       .  A
C2352      C2353   1.400       .  A
C2352      H2361   1.084       .  S
C2353      C2354   1.416       .  A
C2353      H2362   1.079       .  S
C2354      C2355   1.416       .  A
C2355      C2356   1.403       .  A
C2355      H2363   1.083       .  S
C2356      H2364   1.083       .  S
C2365      C2366   1.408       .  A
C2365      C2370   1.406       .  A
C2366      C2367   1.402       .  A
C2366      H2379   1.083       .  S
C2367      C2368   1.401       .  A
C2367      H2380   1.083       .  S
C2368      C2369   1.403       .  A
C2368      C2371   1.451       .  S
C2369      C2370   1.404       .  A
C2369      H2381   1.083       .  S
C2370      H2382   1.083       .  S
C2371      C2372   1.213       .  T
C2372      C2373   1.451       .  S
C2373      C2374   1.400       .  A
C2373      C2378   1.404       .  A
C2374      C2375   1.401       .  A
C2374      H2383   1.083       .  S
C2375      C2376   1.409       .  A
C2375      H2384   1.083       .  S
C2376      C2377   1.406       .  A
C2377      C2378   1.405       .  A
C2377      H2385   1.083       .  S
C2378      H2386   1.083       .  S
C2387      C2388   1.405       .  A
C2387      C2392   1.405       .  A
C2388      C2389   1.398       .  A
C2388      H2401   1.083       .  S
C2389      C2390   1.399       .  A
C2389      H2402   1.083       .  S
C2390      C2391   1.399       .  A
C2390      C2393   1.434       .  S
C2391      C2392   1.395       .  A
C2391      H2403   1.084       .  S
C2392      H2404   1.083       .  S
C2393      C2394   1.203       .  T
C2394      C2395   1.434       .  S
C2395      C2396   1.398       .  A
C2395      C2400   1.400       .  A
C2396      C2397   1.394       .  A
C2396      H2405   1.084       .  S
C2397      C2398   1.404       .  A
C2397      H2406   1.083       .  S
C2398      C2399   1.406       .  A
C2399      C2400   1.399       .  A
C2399      H2407   1.083       .  S
C2400      H2408   1.083       .  S
C2409      C2410   1.408       .  A
C2409      C2414   1.407       .  A
C2410      C2411   1.399       .  A
C2410      H2423   1.083       .  S
C2411      C2412   1.400       .  A
C2411      H2424   1.084       .  S
C2412      C2413   1.403       .  A
C2412      C2415   1.448       .  S
C2413      C2414   1.405       .  A
C2413      H2425   1.083       .  S
C2414      H2426   1.083       .  S
C2415      C2416   1.211       .  T
C2416      C2417   1.448       .  S
C2417      C2418   1.397       .  A
C2417      C2422   1.401       .  A
C2418      C2419   1.398       .  A
C2418      H2427   1.084       .  S
C2419      C2420   1.416       .  A
C2419      H2428   1.083       .  S
C2420      C2421   1.415       .  A
C2421      C2422   1.404       .  A
C2421      H2429   1.079       .  S
C2422      H2430   1.083       .  S
C2431      C2432   1.408       .  A
C2431      C2436   1.406       .  A
C2432      C2433   1.400       .  A
C2432      H2445   1.083       .  S
C2433      C2434   1.400       .  A
C2433      H2446   1.083       .  S
C2434      C2435   1.403       .  A
C2434      C2437   1.448       .  S
C2435      C2436   1.404       .  A
C2435      H2447   1.083       .  S
C2436      H2448   1.083       .  S
C2437      C2438   1.211       .  T
C2438      C2439   1.448       .  S
C2439      C2440   1.399       .  A
C2439      C2444   1.404       .  A
C2440      C2441   1.399       .  A
C2440      H2449   1.084       .  S
C2441      C2442   1.408       .  A
C2441      H2450   1.083       .  S
C2442      C2443   1.406       .  A
C2443      C2444   1.404       .  A
C2443      H2451   1.083       .  S
C2444      H2452   1.083       .  S
C2453      C2454   1.407       .  A
C2453      C2458   1.407       .  A
C2454      C2455   1.399       .  A
C2454      H2467   1.083       .  S
C2455      C2456   1.399       .  A
C2455      H2468   1.084       .  S
C2456      C2457   1.403       .  A
C2456      C2459   1.448       .  S
C2457      C2458   1.405       .  A
C2457      H2469   1.083       .  S
C2458      H2470   1.083       .  S
C2459      C2460   1.211       .  T
C2460      C2461   1.448       .  S
C2461      C2462   1.398       .  A
C2461      C2466   1.398       .  A
C2462      C2463   1.402       .  A
C2462      H2471   1.084       .  S
C2463      C2464   1.418       .  A
C2463      H2472   1.079       .  S
C2464      C2465   1.415       .  A
C2465      C2466   1.400       .  A
C2465      H2473   1.083       .  S
C2466      H2474   1.083       .  S
C2475      C2476   1.406       .  A
C2475      C2480   1.408       .  A
C2476      C2477   1.404       .  A
C2476      H2489   1.083       .  S
C2477      C2478   1.403       .  A
C2477      H2490   1.083       .  S
C2478      C2479   1.399       .  A
C2478      C2481   1.446       .  S
C2479      C2480   1.398       .  A
C2479      H2491   1.084       .  S
C2480      H2492   1.083       .  S
C2481      C2482   1.210       .  T
C2482      C2483   1.446       .  S
C2483      C2484   1.399       .  A
C2483      C2488   1.404       .  A
C2484      C2485   1.398       .  A
C2484      H2493   1.084       .  S
C2485      C2486   1.407       .  A
C2485      H2494   1.083       .  S
C2486      C2487   1.406       .  A
C2487      C2488   1.404       .  A
C2487      H2495   1.083       .  S
C2488      H2496   1.083       .  S
C2497      C2498   1.405       .  A
C2497      C2502   1.406       .  A
C2498      C2499   1.397       .  A
C2498      H2511   1.083       .  S
C2499      C2500   1.400       .  A
C2499      H2512   1.084       .  S
C2500      C2501   1.399       .  A
C2500      C2503   1.437       .  S
C2501      C2502   1.399       .  A
C2501      H2513   1.083       .  S
C2502      H2514   1.083       .  S
C2503      C2504   1.204       .  T
C2504      C2505   1.437       .  S
C2505      C2506   1.400       .  A
C2505      C2510   1.399       .  A
C2506      C2507   1.400       .  A
C2506      H2515   1.083       .  S
C2507      C2508   1.406       .  A
C2507      H2516   1.083       .  S
C2508      C2509   1.404       .  A
C2509      C2510   1.395       .  A
C2509      H2517   1.083       .  S
C2510      H2518   1.084       .  S
C2519      C2520   1.416       .  A
C2519      C2524   1.417       .  A
C2520      C2521   1.398       .  A
C2520      H2533   1.083       .  S
C2521      C2522   1.397       .  A
C2521      H2534   1.083       .  S
C2522      C2523   1.399       .  A
C2522      C2525   1.447       .  S
C2523      C2524   1.402       .  A
C2523      H2535   1.083       .  S
C2524      H2536   1.079   1_545  S
C2525      C2526   1.210       .  T
C2526      C2527   1.446       .  S
C2527      C2528   1.400       .  A
C2527      C2532   1.403       .  A
C2528      C2529   1.399       .  A
C2528      H2537   1.083       .  S
C2529      C2530   1.406       .  A
C2529      H2538   1.083       .  S
C2530      C2531   1.406       .  A
C2531      C2532   1.403       .  A
C2531      H2539   1.083       .  S
C2532      H2540   1.083       .  S
C2541      C2542   1.417       .  A
C2541      C2546   1.416       .  A
C2542      C2543   1.401       .  A
C2542      H2555   1.080       .  S
C2543      C2544   1.398       .  A
C2543      H2556   1.083       .  S
C2544      C2545   1.398       .  A
C2544      C2547   1.445       .  S
C2545      C2546   1.398       .  A
C2545      H2557   1.084       .  S
C2546      H2558   1.083       .  S
C2547      C2548   1.209       .  T
C2548      C2549   1.445   1_565  S
C2549      C2550   1.397       .  A
C2549      C2554   1.397       .  A
C2550      C2551   1.399       .  A
C2550      H2559   1.083       .  S
C2551      C2552   1.417       .  A
C2551      H2560   1.083       .  S
C2552      C2553   1.418       .  A
C2553      C2554   1.400       .  A
C2553      H2561   1.078       .  S
C2554      H2562   1.084       .  S
C2563      C2564   1.407       .  A
C2563      C2568   1.407       .  A
C2564      C2565   1.396       .  A
C2564      H2577   1.083       .  S
C2565      C2566   1.399       .  A
C2565      H2578   1.084       .  S
C2566      C2567   1.403       .  A
C2566      C2569   1.444       .  S
C2567      C2568   1.404       .  A
C2567      H2579   1.083       .  S
C2568      H2580   1.083       .  S
C2569      C2570   1.209       .  T
C2570      C2571   1.444       .  S
C2571      C2572   1.402       .  A
C2571      C2576   1.400       .  A
C2572      C2573   1.402       .  A
C2572      H2581   1.083       .  S
C2573      C2574   1.405       .  A
C2573      H2582   1.083       .  S
C2574      C2575   1.407       .  A
C2575      C2576   1.399       .  A
C2575      H2583   1.083       .  S
C2576      H2584   1.084       .  S
C2585      C2586   1.406       .  A
C2585      C2590   1.408       .  A
C2586      C2587   1.404       .  A
C2586      H2599   1.083       .  S
C2587      C2588   1.403       .  A
C2587      H2600   1.083       .  S
C2588      C2589   1.400       .  A
C2588      C2591   1.447       .  S
C2589      C2590   1.400       .  A
C2589      H2601   1.084       .  S
C2590      H2602   1.083       .  S
C2591      C2592   1.210       .  T
C2592      C2593   1.446       .  S
C2593      C2594   1.399       .  A
C2593      C2598   1.397       .  A
C2594      C2595   1.401       .  A
C2594      H2603   1.083       .  S
C2595      C2596   1.415       .  A
C2595      H2604   1.083       .  S
C2596      C2597   1.416       .  A
C2597      C2598   1.398       .  A
C2597      H2605   1.079       .  S
C2598      H2606   1.084       .  S
C2607      C2608   1.406       .  A
C2607      C2612   1.407       .  A
C2608      C2609   1.404       .  A
C2608      H2621   1.083       .  S
C2609      C2610   1.403       .  A
C2609      H2622   1.083       .  S
C2610      C2611   1.399       .  A
C2610      C2613   1.446       .  S
C2611      C2612   1.398       .  A
C2611      H2623   1.084       .  S
C2612      H2624   1.083       .  S
C2613      C2614   1.210       .  T
C2614      C2615   1.447       .  S
C2615      C2616   1.403       .  A
C2615      C2620   1.400       .  A
C2616      C2617   1.404       .  A
C2616      H2625   1.083       .  S
C2617      C2618   1.406       .  A
C2617      H2626   1.083       .  S
C2618      C2619   1.408       .  A
C2619      C2620   1.400       .  A
C2619      H2627   1.083       .  S
C2620      H2628   1.084       .  S
C2629      C2630   1.406       .  A
C2629      C2634   1.406       .  A
C2630      C2631   1.402       .  A
C2630      H2643   1.083       .  S
C2631      C2632   1.401       .  A
C2631      H2644   1.083       .  S
C2632      C2633   1.398       .  A
C2632      C2635   1.440       .  S
C2633      C2634   1.396       .  A
C2633      H2645   1.084       .  S
C2634      H2646   1.083       .  S
C2635      C2636   1.206       .  T
C2636      C2637   1.440       .  S
C2637      C2638   1.402       .  A
C2637      C2642   1.398       .  A
C2638      C2639   1.401       .  A
C2638      H2647   1.083       .  S
C2639      C2640   1.406       .  A
C2639      H2648   1.083       .  S
C2640      C2641   1.406       .  A
C2641      C2642   1.396       .  A
C2641      H2649   1.083       .  S
C2642      H2650   1.084       .  S
C2651      C2652   1.406       .  A
C2651      C2656   1.405       .  A
C2652      C2653   1.399       .  A
C2652      H2665   1.083       .  S
C2653      C2654   1.400       .  A
C2653      H2666   1.083       .  S
C2654      C2655   1.399       .  A
C2654      C2657   1.435       .  S
C2655      C2656   1.395       .  A
C2655      H2667   1.084       .  S
C2656      H2668   1.083       .  S
C2657      C2658   1.203       .  T
C2658      C2659   1.435   1_565  S
C2659      C2660   1.399       .  A
C2659      C2664   1.400       .  A
C2660      C2661   1.395       .  A
C2660      H2669   1.084       .  S
C2661      C2662   1.405       .  A
C2661      H2670   1.083       .  S
C2662      C2663   1.406       .  A
C2663      C2664   1.399       .  A
C2663      H2671   1.083       .  S
C2664      H2672   1.083       .  S
C2673      C2674   1.406       .  A
C2673      C2678   1.407       .  A
C2674      C2675   1.402       .  A
C2674      H2687   1.083       .  S
C2675      C2676   1.402       .  A
C2675      H2688   1.083       .  S
C2676      C2677   1.400       .  A
C2676      C2679   1.446       .  S
C2677      C2678   1.400       .  A
C2677      H2689   1.083       .  S
C2678      H2690   1.083       .  S
C2679      C2680   1.210       .  T
C2680      C2681   1.446       .  S
C2681      C2682   1.397       .  A
C2681      C2686   1.399       .  A
C2682      C2683   1.398       .  A
C2682      H2691   1.084       .  S
C2683      C2684   1.417       .  A
C2683      H2692   1.078       .  S
C2684      C2685   1.416       .  A
C2685      C2686   1.402       .  A
C2685      H2693   1.083       .  S
C2686      H2694   1.083       .  S
C2695      C2696   1.405       .  A
C2695      C2700   1.407       .  A
C2696      C2697   1.402       .  A
C2696      H2709   1.083       .  S
C2697      C2698   1.402       .  A
C2697      H2710   1.083       .  S
C2698      C2699   1.399       .  A
C2698      C2701   1.442       .  S
C2699      C2700   1.397       .  A
C2699      H2711   1.084       .  S
C2700      H2712   1.083       .  S
C2701      C2702   1.207       .  T
C2702      C2703   1.442       .  S
C2703      C2704   1.403       .  A
C2703      C2708   1.398       .  A
C2704      C2705   1.404       .  A
C2704      H2713   1.083       .  S
C2705      C2706   1.407       .  A
C2705      H2714   1.083       .  S
C2706      C2707   1.406       .  A
C2707      C2708   1.395       .  A
C2707      H2715   1.083       .  S
C2708      H2716   1.084       .  S
C2717      C2718   1.408       .  A
C2717      C2722   1.407       .  A
C2718      C2719   1.399       .  A
C2718      H2731   1.083       .  S
C2719      C2720   1.399       .  A
C2719      H2732   1.084       .  S
C2720      C2721   1.403       .  A
C2720      C2723   1.447       .  S
C2721      C2722   1.404       .  A
C2721      H2733   1.083       .  S
C2722      H2734   1.083       .  S
C2723      C2724   1.210       .  T
C2724      C2725   1.446       .  S
C2725      C2726   1.398       .  A
C2725      C2730   1.398       .  A
C2726      C2727   1.401       .  A
C2726      H2735   1.083       .  S
C2727      C2728   1.417       .  A
C2727      H2736   1.080       .  S
C2728      C2729   1.415       .  A
C2729      C2730   1.399       .  A
C2729      H2737   1.083       .  S
C2730      H2738   1.084       .  S
C2739      C2740   1.406       .  A
C2739      C2744   1.407       .  A
C2740      C2741   1.396       .  A
C2740      H2753   1.083       .  S
C2741      C2742   1.399       .  A
C2741      H2754   1.084       .  S
C2742      C2743   1.402       .  A
C2742      C2745   1.443       .  S
C2743      C2744   1.403       .  A
C2743      H2755   1.083       .  S
C2744      H2756   1.083       .  S
C2745      C2746   1.208       .  T
C2746      C2747   1.443       .  S
C2747      C2748   1.399       .  A
C2747      C2752   1.402       .  A
C2748      C2749   1.398       .  A
C2748      H2757   1.084       .  S
C2749      C2750   1.407       .  A
C2749      H2758   1.083       .  S
C2750      C2751   1.406       .  A
C2751      C2752   1.402       .  A
C2751      H2759   1.083       .  S
C2752      H2760   1.083       .  S
C2761      C2762   1.406       .  A
C2761      C2766   1.406       .  A
C2762      C2763   1.397       .  A
C2762      H2775   1.083       .  S
C2763      C2764   1.399       .  A
C2763      H2776   1.084       .  S
C2764      C2765   1.402       .  A
C2764      C2767   1.443       .  S
C2765      C2766   1.402       .  A
C2765      H2777   1.083       .  S
C2766      H2778   1.083       .  S
C2767      C2768   1.208       .  T
C2768      C2769   1.444       .  S
C2769      C2770   1.399       .  A
C2769      C2774   1.402       .  A
C2770      C2771   1.399       .  A
C2770      H2779   1.084       .  S
C2771      C2772   1.409       .  A
C2771      H2780   1.083       .  S
C2772      C2773   1.405       .  A
C2773      C2774   1.402       .  A
C2773      H2781   1.083       .  S
C2774      H2782   1.083       .  S
C2783      C2784   1.405       .  A
C2783      C2788   1.407       .  A
C2784      C2785   1.396       .  A
C2784      H2797   1.083       .  S
C2785      C2786   1.399       .  A
C2785      H2798   1.084       .  S
C2786      C2787   1.400       .  A
C2786      C2789   1.439       .  S
C2787      C2788   1.400       .  A
C2787      H2799   1.083       .  S
C2788      H2800   1.083       .  S
C2789      C2790   1.205       .  T
C2790      C2791   1.438   1_565  S
C2791      C2792   1.401       .  A
C2791      C2796   1.398       .  A
C2792      C2793   1.402       .  A
C2792      H2801   1.083       .  S
C2793      C2794   1.407       .  A
C2793      H2802   1.083       .  S
C2794      C2795   1.404       .  A
C2795      C2796   1.394       .  A
C2795      H2803   1.083       .  S
C2796      H2804   1.084       .  S
C2805      C2806   1.406       .  A
C2805      C2810   1.406       .  A
C2806      C2807   1.402       .  A
C2806      H2819   1.083       .  S
C2807      C2808   1.403       .  A
C2807      H2820   1.083       .  S
C2808      C2809   1.398       .  A
C2808      C2811   1.442       .  S
C2809      C2810   1.397       .  A
C2809      H2821   1.084       .  S
C2810      H2822   1.083       .  S
C2811      C2812   1.207       .  T
C2812      C2813   1.442       .  S
C2813      C2814   1.400       .  A
C2813      C2818   1.395       .  A
C2814      C2815   1.401       .  A
C2814      H2823   1.083       .  S
C2815      C2816   1.414       .  A
C2815      H2824   1.083       .  S
C2816      C2817   1.418       .  A
C2817      C2818   1.396       .  A
C2817      H2825   1.079       .  S
C2818      H2826   1.084       .  S
C2827      C2828   1.415   1_455  A
C2827      C2832   1.418       .  A
C2828      C2829   1.401       .  A
C2828      H2841   1.079       .  S
C2829      C2830   1.399   1_655  A
C2829      H2842   1.084       .  S
C2830      C2831   1.397       .  A
C2830      C2833   1.445       .  S
C2831      C2832   1.398       .  A
C2831      H2843   1.083       .  S
C2832      H2844   1.083       .  S
C2833      C2834   1.209   1_565  T
C2834      C2835   1.445       .  S
C2835      C2836   1.398       .  A
C2835      C2840   1.397   1_455  A
C2836      C2837   1.401       .  A
C2836      H2845   1.084       .  S
C2837      C2838   1.417       .  A
C2837      H2846   1.078       .  S
C2838      C2839   1.417   1_455  A
C2839      C2840   1.399       .  A
C2839      H2847   1.083       .  S
C2840      H2848   1.083       .  S
C2849      C2850   1.417       .  A
C2849      C2854   1.417   1_455  A
C2850      C2851   1.399       .  A
C2850      H2863   1.083       .  S
C2851      C2852   1.398       .  A
C2851      H2864   1.083       .  S
C2852      C2853   1.401   1_455  A
C2852      C2855   1.451       .  S
C2853      C2854   1.405       .  A
C2853      H2865   1.083       .  S
C2854      H2866   1.079       .  S
C2855      C2856   1.213   1_565  T
C2856      C2857   1.451       .  S
C2857      C2858   1.403       .  A
C2857      C2862   1.395       .  A
C2858      C2859   1.407       .  A
C2858      H2867   1.083       .  S
C2859      C2860   1.416       .  A
C2859      H2868   1.083       .  S
C2860      C2861   1.418       .  A
C2861      C2862   1.396       .  A
C2861      H2869   1.079       .  S
C2862      H2870   1.084       .  S
C2871      C2872   1.417       .  A
C2871      C2876   1.416   1_455  A
C2872      C2873   1.399       .  A
C2872      H2885   1.078       .  S
C2873      C2874   1.397       .  A
C2873      H2886   1.084       .  S
C2874      C2875   1.396   1_455  A
C2874      C2877   1.440       .  S
C2875      C2876   1.396       .  A
C2875      H2887   1.084       .  S
C2876      H2888   1.083       .  S
C2877      C2878   1.206       .  T
C2878      C2879   1.439       .  S
C2879      C2880   1.396       .  A
C2879      C2884   1.397       .  A
C2880      C2881   1.396   1_455  A
C2880      H2889   1.084   1_455  S
C2881      C2882   1.416   1_655  A
C2881      H2890   1.083       .  S
C2882      C2883   1.418       .  A
C2883      C2884   1.399       .  A
C2883      H2891   1.078       .  S
C2884      H2892   1.084       .  S
C2893      C2894   1.407       .  A
C2893      C2898   1.407       .  A
C2894      C2895   1.405       .  A
C2894      H2907   1.083       .  S
C2895      C2896   1.403       .  A
C2895      H2908   1.083       .  S
C2896      C2897   1.400       .  A
C2896      C2899   1.448       .  S
C2897      C2898   1.400       .  A
C2897      H2909   1.084       .  S
C2898      H2910   1.083       .  S
C2899      C2900   1.211       .  T
C2900      C2901   1.448       .  S
C2901      C2902   1.396       .  A
C2901      C2906   1.400       .  A
C2902      C2903   1.398       .  A
C2902      H2911   1.084       .  S
C2903      C2904   1.417       .  A
C2903      H2912   1.079       .  S
C2904      C2905   1.416       .  A
C2905      C2906   1.404       .  A
C2905      H2913   1.083   1_655  S
C2906      H2914   1.083       .  S
C2915      C2916   1.408       .  A
C2915      C2920   1.407       .  A
C2916      C2917   1.400       .  A
C2916      H2929   1.083       .  S
C2917      C2918   1.400       .  A
C2917      H2930   1.084       .  S
C2918      C2919   1.404       .  A
C2918      C2921   1.451       .  S
C2919      C2920   1.406       .  A
C2919      H2931   1.083       .  S
C2920      H2932   1.083       .  S
C2921      C2922   1.213       .  T
C2922      C2923   1.451       .  S
C2923      C2924   1.400       .  A
C2923      C2928   1.404       .  A
C2924      C2925   1.401       .  A
C2924      H2933   1.083       .  S
C2925      C2926   1.408       .  A
C2925      H2934   1.083       .  S
C2926      C2927   1.407       .  A
C2927      C2928   1.405       .  A
C2927      H2935   1.083       .  S
C2928      H2936   1.083       .  S
C2937      C2938   1.405       .  A
C2937      C2942   1.406       .  A
C2938      C2939   1.395       .  A
C2938      H2951   1.083       .  S
C2939      C2940   1.398       .  A
C2939      H2952   1.084       .  S
C2940      C2941   1.400       .  A
C2940      C2943   1.436       .  S
C2941      C2942   1.400       .  A
C2941      H2953   1.083       .  S
C2942      H2954   1.083       .  S
C2943      C2944   1.204       .  T
C2944      C2945   1.436       .  S
C2945      C2946   1.400       .  A
C2945      C2950   1.398       .  A
C2946      C2947   1.399       .  A
C2946      H2955   1.083       .  S
C2947      C2948   1.406       .  A
C2947      H2956   1.083       .  S
C2948      C2949   1.405       .  A
C2949      C2950   1.395       .  A
C2949      H2957   1.083       .  S
C2950      H2958   1.084       .  S
C2959      C2960   1.409       .  A
C2959      C2964   1.407       .  A
C2960      C2961   1.401       .  A
C2960      H2973   1.083       .  S
C2961      C2962   1.401       .  A
C2961      H2974   1.083       .  S
C2962      C2963   1.404       .  A
C2962      C2965   1.452       .  S
C2963      C2964   1.405       .  A
C2963      H2975   1.083       .  S
C2964      H2976   1.083       .  S
C2965      C2966   1.213       .  T
C2966      C2967   1.451       .  S
C2967      C2968   1.401       .  A
C2967      C2972   1.397       .  A
C2968      C2969   1.405       .  A
C2968      H2977   1.083       .  S
C2969      C2970   1.415       .  A
C2969      H2978   1.083       .  S
C2970      C2971   1.419       .  A
C2971      C2972   1.399       .  A
C2971      H2979   1.079       .  S
C2972      H2980   1.084       .  S
C2981      C2982   1.406       .  A
C2981      C2986   1.407       .  A
C2982      C2983   1.396       .  A
C2982      H2995   1.083       .  S
C2983      C2984   1.398       .  A
C2983      H2996   1.084       .  S
C2984      C2985   1.403       .  A
C2984      C2987   1.443       .  S
C2985      C2986   1.404       .  A
C2985      H2997   1.083       .  S
C2986      H2998   1.083       .  S
C2987      C2988   1.208       .  T
C2988      C2989   1.443       .  S
C2989      C2990   1.397       .  A
C2989      C2994   1.399       .  A
C2990      C2991   1.398       .  A
C2990      H2999   1.084       .  S
C2991      C2992   1.416       .  A
C2991      H3000   1.079       .  S
C2992      C2993   1.415       .  A
C2993      C2994   1.400       .  A
C2993      H3001   1.083       .  S
C2994      H3002   1.083       .  S
C3003      C3004   1.408       .  A
C3003      C3008   1.406       .  A
C3004      C3005   1.397       .  A
C3004      H3017   1.083       .  S
C3005      C3006   1.398       .  A
C3005      H3018   1.084       .  S
C3006      C3007   1.404       .  A
C3006      C3009   1.445       .  S
C3007      C3008   1.404       .  A
C3007      H3019   1.083       .  S
C3008      H3020   1.083       .  S
C3009      C3010   1.209       .  T
C3010      C3011   1.445       .  S
C3011      C3012   1.404       .  A
C3011      C3016   1.397       .  A
C3012      C3013   1.406       .  A
C3012      H3021   1.083       .  S
C3013      C3014   1.407       .  A
C3013      H3022   1.083       .  S
C3014      C3015   1.408       .  A
C3015      C3016   1.397       .  A
C3015      H3023   1.083       .  S
C3016      H3024   1.084       .  S
C3025      C3026   1.406       .  A
C3025      C3030   1.404       .  A
C3026      C3027   1.399       .  A
C3026      H3039   1.083       .  S
C3027      C3028   1.400       .  A
C3027      H3040   1.083       .  S
C3028      C3029   1.397       .  A
C3028      C3031   1.432       .  S
C3029      C3030   1.392       .  A
C3029      H3041   1.084       .  S
C3030      H3042   1.083       .  S
C3031      C3032   1.201       .  T
C3032      C3033   1.432       .  S
C3033      C3034   1.399       .  A
C3033      C3038   1.398       .  A
C3034      C3035   1.395       .  A
C3034      H3043   1.084       .  S
C3035      C3036   1.404       .  A
C3035      H3044   1.083       .  S
C3036      C3037   1.406       .  A
C3037      C3038   1.397       .  A
C3037      H3045   1.083       .  S
C3038      H3046   1.083       .  S
C3047      C3048   1.408       .  A
C3047      C3052   1.407       .  A
C3048      C3049   1.397       .  A
C3048      H3061   1.083       .  S
C3049      C3050   1.398       .  A
C3049      H3062   1.084       .  S
C3050      C3051   1.405       .  A
C3050      C3053   1.448       .  S
C3051      C3052   1.406       .  A
C3051      H3063   1.083       .  S
C3052      H3064   1.083       .  S
C3053      C3054   1.211       .  T
C3054      C3055   1.448       .  S
C3055      C3056   1.398       .  A
C3055      C3060   1.399       .  A
C3056      C3057   1.401       .  A
C3056      H3065   1.083       .  S
C3057      C3058   1.417       .  A
C3057      H3066   1.079       .  S
C3058      C3059   1.416       .  A
C3059      C3060   1.401       .  A
C3059      H3067   1.083       .  S
C3060      H3068   1.083       .  S
C3069      C3070   1.416       .  A
C3069      C3074   1.418       .  A
C3070      C3071   1.402       .  A
C3070      H3083   1.079       .  S
C3071      C3072   1.399       .  A
C3071      H3084   1.084       .  S
C3072      C3073   1.397       .  A
C3072      C3075   1.447       .  S
C3073      C3074   1.399       .  A
C3073      H3085   1.083       .  S
C3074      H3086   1.083       .  S
C3075      C3076   1.210       .  T
C3076      C3077   1.447       .  S
C3077      C3078   1.399       .  A
C3077      C3082   1.396       .  A
C3078      C3079   1.403       .  A
C3078      H3087   1.083       .  S
C3079      C3080   1.417       .  A
C3079      H3088   1.078       .  S
C3080      C3081   1.416       .  A
C3081      C3082   1.397       .  A
C3081      H3089   1.083       .  S
C3082      H3090   1.084       .  S
C3091      C3092   1.417       .  A
C3091      C3096   1.416       .  A
C3092      C3093   1.396       .  A
C3092      H3105   1.078       .  S
C3093      C3094   1.396       .  A
C3093      H3106   1.084       .  S
C3094      C3095   1.397       .  A
C3094      C3097   1.438   1_655  S
C3095      C3096   1.398       .  A
C3095      H3107   1.083       .  S
C3096      H3108   1.083       .  S
C3097      C3098   1.205       .  T
C3098      C3099   1.438       .  S
C3099      C3100   1.398       .  A
C3099      C3104   1.395       .  A
C3100      C3101   1.399       .  A
C3100      H3109   1.084       .  S
C3101      C3102   1.416       .  A
C3101      H3110   1.079       .  S
C3102      C3103   1.416       .  A
C3103      C3104   1.394       .  A
C3103      H3111   1.083       .  S
C3104      H3112   1.084       .  S
C3113      C3114   1.416       .  A
C3113      C3118   1.417       .  A
C3114      C3115   1.398       .  A
C3114      H3127   1.083       .  S
C3115      C3116   1.397       .  A
C3115      H3128   1.083       .  S
C3116      C3117   1.398       .  A
C3116      C3119   1.443       .  S
C3117      C3118   1.401       .  A
C3117      H3129   1.084       .  S
C3118      H3130   1.078       .  S
C3119      C3120   1.208       .  T
C3120      C3121   1.444       .  S
C3121      C3122   1.399       .  A
C3121      C3126   1.396       .  A
C3122      C3123   1.401       .  A
C3122      H3131   1.083       .  S
C3123      C3124   1.416       .  A
C3123      H3132   1.079       .  S
C3124      C3125   1.417       .  A
C3125      C3126   1.396       .  A
C3125      H3133   1.083       .  S
C3126      H3134   1.084       .  S
C3135      C3136   1.407       .  A
C3135      C3140   1.406       .  A
C3136      C3137   1.396       .  A
C3136      H3149   1.083       .  S
C3137      C3138   1.398       .  A
C3137      H3150   1.084       .  S
C3138      C3139   1.404       .  A
C3138      C3141   1.445       .  S
C3139      C3140   1.405       .  A
C3139      H3151   1.083       .  S
C3140      H3152   1.083       .  S
C3141      C3142   1.209       .  T
C3142      C3143   1.445       .  S
C3143      C3144   1.398       .  A
C3143      C3148   1.403       .  A
C3144      C3145   1.398       .  A
C3144      H3153   1.084       .  S
C3145      C3146   1.408       .  A
C3145      H3154   1.083       .  S
C3146      C3147   1.406       .  A
C3147      C3148   1.403       .  A
C3147      H3155   1.083       .  S
C3148      H3156   1.083       .  S
C3157      C3158   1.406       .  A
C3157      C3162   1.406       .  A
C3158      C3159   1.402       .  A
C3158      H3171   1.083       .  S
C3159      C3160   1.402       .  A
C3159      H3172   1.083       .  S
C3160      C3161   1.398       .  A
C3160      C3163   1.441       .  S
C3161      C3162   1.396       .  A
C3161      H3173   1.084       .  S
C3162      H3174   1.083       .  S
C3163      C3164   1.207       .  T
C3164      C3165   1.441       .  S
C3165      C3166   1.402       .  A
C3165      C3170   1.398       .  A
C3166      C3167   1.403       .  A
C3166      H3175   1.083       .  S
C3167      C3168   1.407       .  A
C3167      H3176   1.083       .  S
C3168      C3169   1.406       .  A
C3169      C3170   1.395       .  A
C3169      H3177   1.083       .  S
C3170      H3178   1.084       .  S
C3179      C3180   1.415       .  A
C3179      C3184   1.419       .  A
C3180      C3181   1.404       .  A
C3180      H3193   1.083       .  S
C3181      C3182   1.400       .  A
C3181      H3194   1.083       .  S
C3182      C3183   1.396       .  A
C3182      C3185   1.448       .  S
C3183      C3184   1.398       .  A
C3183      H3195   1.084       .  S
C3184      H3196   1.079       .  S
C3185      C3186   1.211       .  T
C3186      C3187   1.448       .  S
C3187      C3188   1.403       .  A
C3187      C3192   1.400       .  A
C3188      C3189   1.405       .  A
C3188      H3197   1.083       .  S
C3189      C3190   1.407       .  A
C3189      H3198   1.083       .  S
C3190      C3191   1.407       .  A
C3191      C3192   1.399       .  A
C3191      H3199   1.083       .  S
C3192      H3200   1.084       .  S
C3201      C3202   1.407       .  A
C3201      C3206   1.408       .  A
C3202      C3203   1.407       .  A
C3202      H3215   1.083       .  S
C3203      C3204   1.404       .  A
C3203      H3216   1.083       .  S
C3204      C3205   1.400       .  A
C3204      C3207   1.453       .  S
C3205      C3206   1.401       .  A
C3205      H3217   1.083       .  S
C3206      H3218   1.083       .  S
C3207      C3208   1.214       .  T
C3208      C3209   1.453       .  S
C3209      C3210   1.404       .  A
C3209      C3214   1.401       .  A
C3210      C3211   1.406       .  A
C3210      H3219   1.083       .  S
C3211      C3212   1.406       .  A
C3211      H3220   1.083       .  S
C3212      C3213   1.409       .  A
C3213      C3214   1.402       .  A
C3213      H3221   1.083       .  S
C3214      H3222   1.083       .  S
C3223      C3224   1.406       .  A
C3223      C3228   1.406       .  A
C3224      C3225   1.402       .  A
C3224      H3237   1.083       .  S
C3225      C3226   1.402       .  A
C3225      H3238   1.083       .  S
C3226      C3227   1.399       .  A
C3226      C3229   1.442       .  S
C3227      C3228   1.397       .  A
C3227      H3239   1.084       .  S
C3228      H3240   1.083       .  S
C3229      C3230   1.207       .  T
C3230      C3231   1.441       .  S
C3231      C3232   1.403       .  A
C3231      C3236   1.398       .  A
C3232      C3233   1.403       .  A
C3232      H3241   1.083       .  S
C3233      C3234   1.406       .  A
C3233      H3242   1.083       .  S
C3234      C3235   1.406       .  A
C3235      C3236   1.395       .  A
C3235      H3243   1.083       .  S
C3236      H3244   1.084       .  S
C3245      C3246   1.405       .  A
C3245      C3250   1.405       .  A
C3246      C3247   1.396       .  A
C3246      H3259   1.083       .  S
C3247      C3248   1.399       .  A
C3247      H3260   1.084       .  S
C3248      C3249   1.399       .  A
C3248      C3251   1.435   1_655  S
C3249      C3250   1.398       .  A
C3249      H3261   1.083       .  S
C3250      H3262   1.083       .  S
C3251      C3252   1.203       .  T
C3252      C3253   1.436       .  S
C3253      C3254   1.400       .  A
C3253      C3258   1.399       .  A
C3254      C3255   1.398       .  A
C3254      H3263   1.083       .  S
C3255      C3256   1.405       .  A
C3255      H3264   1.083       .  S
C3256      C3257   1.405       .  A
C3257      C3258   1.396       .  A
C3257      H3265   1.083       .  S
C3258      H3266   1.084       .  S
C3267      C3268   1.407       .  A
C3267      C3272   1.408       .  A
C3268      C3269   1.405       .  A
C3268      H3281   1.083       .  S
C3269      C3270   1.403       .  A
C3269      H3282   1.083       .  S
C3270      C3271   1.399       .  A
C3270      C3273   1.448       .  S
C3271      C3272   1.399       .  A
C3271      H3283   1.084       .  S
C3272      H3284   1.083       .  S
C3273      C3274   1.211       .  T
C3274      C3275   1.448       .  S
C3275      C3276   1.399       .  A
C3275      C3280   1.398       .  A
C3276      C3277   1.400       .  A
C3276      H3285   1.083       .  S
C3277      C3278   1.415       .  A
C3277      H3286   1.083       .  S
C3278      C3279   1.417       .  A
C3279      C3280   1.401       .  A
C3279      H3287   1.080       .  S
C3280      H3288   1.083       .  S
C3289      C3290   1.406       .  A
C3289      C3294   1.408       .  A
C3290      C3291   1.404       .  A
C3290      H3303   1.083       .  S
C3291      C3292   1.403       .  A
C3291      H3304   1.083       .  S
C3292      C3293   1.398       .  A
C3292      C3295   1.446       .  S
C3293      C3294   1.398       .  A
C3293      H3305   1.084       .  S
C3294      H3306   1.083       .  S
C3295      C3296   1.209       .  T
C3296      C3297   1.445       .  S
C3297      C3298   1.403       .  A
C3297      C3302   1.399       .  A
C3298      C3299   1.404       .  A
C3298      H3307   1.083       .  S
C3299      C3300   1.407       .  A
C3299      H3308   1.083       .  S
C3300      C3301   1.407       .  A
C3301      C3302   1.398       .  A
C3301      H3309   1.083       .  S
C3302      H3310   1.084       .  S
C3311      C3312   1.407       .  A
C3311      C3316   1.407       .  A
C3312      C3313   1.397       .  A
C3312      H3325   1.083       .  S
C3313      C3314   1.399       .  A
C3313      H3326   1.084       .  S
C3314      C3315   1.403       .  A
C3314      C3317   1.445       .  S
C3315      C3316   1.404       .  A
C3315      H3327   1.083       .  S
C3316      H3328   1.083       .  S
C3317      C3318   1.209       .  T
C3318      C3319   1.445       .  S
C3319      C3320   1.400       .  A
C3319      C3324   1.402       .  A
C3320      C3321   1.398       .  A
C3320      H3329   1.084       .  S
C3321      C3322   1.407       .  A
C3321      H3330   1.083       .  S
C3322      C3323   1.406       .  A
C3323      C3324   1.403       .  A
C3323      H3331   1.083       .  S
C3324      H3332   1.083       .  S
C3333      C3334   1.408       .  A
C3333      C3338   1.407       .  A
C3334      C3335   1.398       .  A
C3334      H3347   1.083       .  S
C3335      C3336   1.398       .  A
C3335      H3348   1.084       .  S
C3336      C3337   1.404       .  A
C3336      C3339   1.447       .  S
C3337      C3338   1.406       .  A
C3337      H3349   1.083       .  S
C3338      H3350   1.083       .  S
C3339      C3340   1.211       .  T
C3340      C3341   1.447       .  S
C3341      C3342   1.396       .  A
C3341      C3346   1.400       .  A
C3342      C3343   1.398       .  A
C3342      H3351   1.083       .  S
C3343      C3344   1.417       .  A
C3343      H3352   1.083       .  S
C3344      C3345   1.417       .  A
C3345      C3346   1.403       .  A
C3345      H3353   1.078       .  S
C3346      H3354   1.083       .  S
C3355      C3356   1.408       .  A
C3355      C3360   1.406       .  A
C3356      C3357   1.398       .  A
C3356      H3369   1.083       .  S
C3357      C3358   1.398       .  A
C3357      H3370   1.084       .  S
C3358      C3359   1.405       .  A
C3358      C3361   1.448       .  S
C3359      C3360   1.406       .  A
C3359      H3371   1.083       .  S
C3360      H3372   1.083       .  S
C3361      C3362   1.211       .  T
C3362      C3363   1.448       .  S
C3363      C3364   1.398       .  A
C3363      C3368   1.405       .  A
C3364      C3365   1.397       .  A
C3364      H3373   1.084       .  S
C3365      C3366   1.407       .  A
C3365      H3374   1.083       .  S
C3366      C3367   1.407       .  A
C3367      C3368   1.406       .  A
C3367      H3375   1.083       .  S
C3368      H3376   1.083       .  S
C3377      C3378   1.407       .  A
C3377      C3382   1.405       .  A
C3378      C3379   1.398       .  A
C3378      H3391   1.083       .  S
C3379      C3380   1.399       .  A
C3379      H3392   1.084       .  S
C3380      C3381   1.401       .  A
C3380      C3383   1.440       .  S
C3381      C3382   1.400       .  A
C3381      H3393   1.083       .  S
C3382      H3394   1.083       .  S
C3383      C3384   1.206       .  T
C3384      C3385   1.440       .  S
C3385      C3386   1.399       .  A
C3385      C3390   1.401       .  A
C3386      C3387   1.397       .  A
C3386      H3395   1.084       .  S
C3387      C3388   1.406       .  A
C3387      H3396   1.083       .  S
C3388      C3389   1.405       .  A
C3389      C3390   1.400       .  A
C3389      H3397   1.083       .  S
C3390      H3398   1.083       .  S
C3399      C3400   1.404       .  A
C3399      C3404   1.406       .  A
C3400      C3401   1.394       .  A
C3400      H3413   1.083       .  S
C3401      C3402   1.399       .  A
C3401      H3414   1.084       .  S
C3402      C3403   1.399       .  A
C3402      C3405   1.434       .  S
C3403      C3404   1.399       .  A
C3403      H3415   1.083       .  S
C3404      H3416   1.083       .  S
C3405      C3406   1.202       .  T
C3406      C3407   1.434   1_455  S
C3407      C3408   1.400       .  A
C3407      C3412   1.398       .  A
C3408      C3409   1.400       .  A
C3408      H3417   1.083       .  S
C3409      C3410   1.407       .  A
C3409      H3418   1.083       .  S
C3410      C3411   1.404       .  A
C3411      C3412   1.392       .  A
C3411      H3419   1.083       .  S
C3412      H3420   1.084       .  S
C3421      C3422   1.408       .  A
C3421      C3426   1.407       .  A
C3422      C3423   1.400       .  A
C3422      H3435   1.083       .  S
C3423      C3424   1.400       .  A
C3423      H3436   1.084       .  S
C3424      C3425   1.403       .  A
C3424      C3427   1.448       .  S
C3425      C3426   1.404       .  A
C3425      H3437   1.083       .  S
C3426      H3438   1.083       .  S
C3427      C3428   1.211       .  T
C3428      C3429   1.448       .  S
C3429      C3430   1.402       .  A
C3429      C3434   1.395       .  A
C3430      C3431   1.406       .  A
C3430      H3439   1.083       .  S
C3431      C3432   1.415       .  A
C3431      H3440   1.083       .  S
C3432      C3433   1.418       .  A
C3433      C3434   1.395       .  A
C3433      H3441   1.080       .  S
C3434      H3442   1.084       .  S
C3443      C3444   1.415       .  A
C3443      C3448   1.416       .  A
C3444      C3445   1.399       .  A
C3444      H3457   1.083       .  S
C3445      C3446   1.397       .  A
C3445      H3458   1.083       .  S
C3446      C3447   1.395       .  A
C3446      C3449   1.438       .  S
C3447      C3448   1.394       .  A
C3447      H3459   1.084       .  S
C3448      H3460   1.079       .  S
C3449      C3450   1.205       .  T
C3450      C3451   1.438       .  S
C3451      C3452   1.395       .  A
C3451      C3456   1.398       .  A
C3452      C3453   1.394       .  A
C3452      H3461   1.084       .  S
C3453      C3454   1.416       .  A
C3453      H3462   1.083       .  S
C3454      C3455   1.415       .  A
C3455      C3456   1.400       .  A
C3455      H3463   1.079       .  S
C3456      H3464   1.083       .  S
C3465      C3466   1.417       .  A
C3465      C3470   1.415       .  A
C3466      C3467   1.397       .  A
C3466      H3479   1.083       .  S
C3467      C3468   1.397       .  A
C3467      H3480   1.083       .  S
C3468      C3469   1.397       .  A
C3468      C3471   1.441       .  S
C3469      C3470   1.399       .  A
C3469      H3481   1.084       .  S
C3470      H3482   1.079       .  S
C3471      C3472   1.207       .  T
C3472      C3473   1.441   1_565  S
C3473      C3474   1.397       .  A
C3473      C3478   1.397       .  A
C3474      C3475   1.399       .  A
C3474      H3483   1.084       .  S
C3475      C3476   1.417       .  A
C3475      H3484   1.079       .  S
C3476      C3477   1.415       .  A
C3477      C3478   1.397       .  A
C3477      H3485   1.083       .  S
C3478      H3486   1.083       .  S
C3487      C3488   1.417       .  A
C3487      C3492   1.415       .  A
C3488      C3489   1.395       .  A
C3488      H3501   1.079       .  S
C3489      C3490   1.395       .  A
C3489      H3502   1.084       .  S
C3490      C3491   1.399       .  A
C3490      C3493   1.443       .  S
C3491      C3492   1.403       .  A
C3491      H3503   1.083       .  S
C3492      H3504   1.083       .  S
C3493      C3494   1.208       .  T
C3494      C3495   1.443       .  S
C3495      C3496   1.397       .  A
C3495      C3500   1.398       .  A
C3496      C3497   1.397       .  A
C3496      H3505   1.083       .  S
C3497      C3498   1.415       .  A
C3497      H3506   1.083       .  S
C3498      C3499   1.418       .  A
C3499      C3500   1.401       .  A
C3499      H3507   1.079       .  S
C3500      H3508   1.084       .  S
C3509      C3510   1.408       .  A
C3509      C3514   1.405       .  A
C3510      C3511   1.398       .  A
C3510      H3523   1.083       .  S
C3511      C3512   1.399       .  A
C3511      H3524   1.084       .  S
C3512      C3513   1.402       .  A
C3512      C3515   1.443       .  S
C3513      C3514   1.402       .  A
C3513      H3525   1.083       .  S
C3514      H3526   1.083       .  S
C3515      C3516   1.208       .  T
C3516      C3517   1.442       .  S
C3517      C3518   1.399       .  A
C3517      C3522   1.402       .  A
C3518      C3519   1.397       .  A
C3518      H3527   1.084       .  S
C3519      C3520   1.407       .  A
C3519      H3528   1.083       .  S
C3520      C3521   1.405       .  A
C3521      C3522   1.402       .  A
C3521      H3529   1.083       .  S
C3522      H3530   1.083       .  S
C3531      C3532   1.406       .  A
C3531      C3536   1.407       .  A
C3532      C3533   1.395       .  A
C3532      H3545   1.083       .  S
C3533      C3534   1.398       .  A
C3533      H3546   1.084       .  S
C3534      C3535   1.402       .  A
C3534      C3537   1.440       .  S
C3535      C3536   1.402       .  A
C3535      H3547   1.083       .  S
C3536      H3548   1.083       .  S
C3537      C3538   1.206       .  T
C3538      C3539   1.441       .  S
C3539      C3540   1.398       .  A
C3539      C3544   1.402       .  A
C3540      C3541   1.396       .  A
C3540      H3549   1.084       .  S
C3541      C3542   1.407       .  A
C3541      H3550   1.083       .  S
C3542      C3543   1.406       .  A
C3543      C3544   1.402       .  A
C3543      H3551   1.083       .  S
C3544      H3552   1.083       .  S
C3553      C3554   1.407       .  A
C3553      C3558   1.407       .  A
C3554      C3555   1.400       .  A
C3554      H3567   1.083       .  S
C3555      C3556   1.400       .  A
C3555      H3568   1.083       .  S
C3556      C3557   1.403       .  A
C3556      C3559   1.449       .  S
C3557      C3558   1.404       .  A
C3557      H3569   1.083       .  S
C3558      H3570   1.083       .  S
C3559      C3560   1.212       .  T
C3560      C3561   1.449       .  S
C3561      C3562   1.400       .  A
C3561      C3566   1.398       .  A
C3562      C3563   1.403       .  A
C3562      H3571   1.083       .  S
C3563      C3564   1.417       .  A
C3563      H3572   1.079       .  S
C3564      C3565   1.416       .  A
C3565      C3566   1.399       .  A
C3565      H3573   1.083       .  S
C3566      H3574   1.083       .  S
C3575      C3576   1.409       .  A
C3575      C3580   1.406       .  A
C3576      C3577   1.400       .  A
C3576      H3589   1.083       .  S
C3577      C3578   1.400       .  A
C3577      H3590   1.083       .  S
C3578      C3579   1.404       .  A
C3578      C3581   1.450       .  S
C3579      C3580   1.405       .  A
C3579      H3591   1.083       .  S
C3580      H3592   1.083       .  S
C3581      C3582   1.212       .  T
C3582      C3583   1.450       .  S
C3583      C3584   1.400       .  A
C3583      C3588   1.404       .  A
C3584      C3585   1.399       .  A
C3584      H3593   1.084       .  S
C3585      C3586   1.408       .  A
C3585      H3594   1.083       .  S
C3586      C3587   1.407       .  A
C3587      C3588   1.406       .  A
C3587      H3595   1.083       .  S
C3588      H3596   1.083       .  S
C3597      C3598   1.407       .  A
C3597      C3602   1.406       .  A
C3598      C3599   1.397       .  A
C3598      H3611   1.083       .  S
C3599      C3600   1.399       .  A
C3599      H3612   1.084       .  S
C3600      C3601   1.402       .  A
C3600      C3603   1.442       .  S
C3601      C3602   1.402       .  A
C3601      H3613   1.083       .  S
C3602      H3614   1.083       .  S
C3603      C3604   1.207       .  T
C3604      C3605   1.442       .  S
C3605      C3606   1.399       .  A
C3605      C3610   1.402       .  A
C3606      C3607   1.397       .  A
C3606      H3615   1.084       .  S
C3607      C3608   1.406       .  A
C3607      H3616   1.083       .  S
C3608      C3609   1.406       .  A
C3609      C3610   1.402       .  A
C3609      H3617   1.083       .  S
C3610      H3618   1.083       .  S
C3619      C3620   1.404       .  A
C3619      C3624   1.406       .  A
C3620      C3621   1.393       .  A
C3620      H3633   1.083       .  S
C3621      C3622   1.398       .  A
C3621      H3634   1.084       .  S
C3622      C3623   1.400       .  A
C3622      C3625   1.433   1_545  S
C3623      C3624   1.398       .  A
C3623      H3635   1.083       .  S
C3624      H3636   1.083       .  S
C3625      C3626   1.202       .  T
C3626      C3627   1.433       .  S
C3627      C3628   1.398       .  A
C3627      C3632   1.399       .  A
C3628      C3629   1.397       .  A
C3628      H3637   1.083       .  S
C3629      C3630   1.406       .  A
C3629      H3638   1.083       .  S
C3630      C3631   1.404       .  A
C3631      C3632   1.395       .  A
C3631      H3639   1.083       .  S
C3632      H3640   1.084       .  S
C3641      C3642   1.408       .  A
C3641      C3646   1.407       .  A
C3642      C3643   1.400       .  A
C3642      H3655   1.083       .  S
C3643      C3644   1.400       .  A
C3643      H3656   1.084       .  S
C3644      C3645   1.404       .  A
C3644      C3647   1.451       .  S
C3645      C3646   1.406       .  A
C3645      H3657   1.083       .  S
C3646      H3658   1.083       .  S
C3647      C3648   1.213       .  T
C3648      C3649   1.451       .  S
C3649      C3650   1.397       .  A
C3649      C3654   1.401       .  A
C3650      C3651   1.400       .  A
C3650      H3659   1.084       .  S
C3651      C3652   1.419       .  A
C3651      H3660   1.079       .  S
C3652      C3653   1.415       .  A
C3653      C3654   1.404       .  A
C3653      H3661   1.083       .  S
C3654      H3662   1.083       .  S
C3663      C3664   1.406       .  A
C3663      C3668   1.407       .  A
C3664      C3665   1.406       .  A
C3664      H3677   1.083       .  S
C3665      C3666   1.405       .  A
C3665      H3678   1.083       .  S
C3666      C3667   1.398       .  A
C3666      C3669   1.448       .  S
C3667      C3668   1.397       .  A
C3667      H3679   1.084       .  S
C3668      H3680   1.083       .  S
C3669      C3670   1.211       .  T
C3670      C3671   1.449       .  S
C3671      C3672   1.404       .  A
C3671      C3676   1.399       .  A
C3672      C3673   1.406       .  A
C3672      H3681   1.083       .  S
C3673      C3674   1.407       .  A
C3673      H3682   1.083       .  S
C3674      C3675   1.408       .  A
C3675      C3676   1.399       .  A
C3675      H3683   1.083       .  S
C3676      H3684   1.084       .  S
C3685      C3686   1.407       .  A
C3685      C3690   1.407       .  A
C3686      C3687   1.404       .  A
C3686      H3699   1.083       .  S
C3687      C3688   1.403       .  A
C3687      H3700   1.083       .  S
C3688      C3689   1.399       .  A
C3688      C3691   1.443       .  S
C3689      C3690   1.397       .  A
C3689      H3701   1.084       .  S
C3690      H3702   1.083       .  S
C3691      C3692   1.208       .  T
C3692      C3693   1.443       .  S
C3693      C3694   1.403       .  A
C3693      C3698   1.398       .  A
C3694      C3695   1.404       .  A
C3694      H3703   1.083       .  S
C3695      C3696   1.407       .  A
C3695      H3704   1.083       .  S
C3696      C3697   1.406       .  A
C3697      C3698   1.395       .  A
C3697      H3705   1.083       .  S
C3698      H3706   1.084       .  S
C3707      C3708   1.407       .  A
C3707      C3712   1.407       .  A
C3708      C3709   1.399       .  A
C3708      H3721   1.083       .  S
C3709      C3710   1.400       .  A
C3709      H3722   1.084       .  S
C3710      C3711   1.402       .  A
C3710      C3713   1.445       .  S
C3711      C3712   1.402       .  A
C3711      H3723   1.083       .  S
C3712      H3724   1.083       .  S
C3713      C3714   1.209       .  T
C3714      C3715   1.445       .  S
C3715      C3716   1.398       .  A
C3715      C3720   1.397       .  A
C3716      C3717   1.399       .  A
C3716      H3725   1.083       .  S
C3717      C3718   1.416       .  A
C3717      H3726   1.083       .  S
C3718      C3719   1.418       .  A
C3719      C3720   1.400       .  A
C3719      H3727   1.078       .  S
C3720      H3728   1.084       .  S
C3729      C3730   1.407       .  A
C3729      C3734   1.406       .  A
C3730      C3731   1.396       .  A
C3730      H3743   1.083       .  S
C3731      C3732   1.398       .  A
C3731      H3744   1.084       .  S
C3732      C3733   1.403       .  A
C3732      C3735   1.442       .  S
C3733      C3734   1.403       .  A
C3733      H3745   1.083       .  S
C3734      H3746   1.083       .  S
C3735      C3736   1.207       .  T
C3736      C3737   1.442       .  S
C3737      C3738   1.398       .  A
C3737      C3742   1.402       .  A
C3738      C3739   1.397       .  A
C3738      H3747   1.084       .  S
C3739      C3740   1.407       .  A
C3739      H3748   1.083       .  S
C3740      C3741   1.405       .  A
C3741      C3742   1.402       .  A
C3741      H3749   1.083       .  S
C3742      H3750   1.083       .  S
C3751      C3752   1.406       .  A
C3751      C3756   1.406       .  A
C3752      C3753   1.402       .  A
C3752      H3765   1.083       .  S
C3753      C3754   1.402       .  A
C3753      H3766   1.083       .  S
C3754      C3755   1.398       .  A
C3754      C3757   1.439       .  S
C3755      C3756   1.394       .  A
C3755      H3767   1.084       .  S
C3756      H3768   1.083       .  S
C3757      C3758   1.206       .  T
C3758      C3759   1.440       .  S
C3759      C3760   1.401       .  A
C3759      C3764   1.399       .  A
C3760      C3761   1.401       .  A
C3760      H3769   1.083       .  S
C3761      C3762   1.406       .  A
C3761      H3770   1.083       .  S
C3762      C3763   1.407       .  A
C3763      C3764   1.397       .  A
C3763      H3771   1.083       .  S
C3764      H3772   1.084       .  S
C3773      C3774   1.405       .  A
C3773      C3778   1.405       .  A
C3774      C3775   1.397       .  A
C3774      H3787   1.083       .  S
C3775      C3776   1.399       .  A
C3775      H3788   1.083       .  S
C3776      C3777   1.399       .  A
C3776      C3779   1.434   1_545  S
C3777      C3778   1.395       .  A
C3777      H3789   1.084       .  S
C3778      H3790   1.083       .  S
C3779      C3780   1.202       .  T
C3780      C3781   1.434       .  S
C3781      C3782   1.398       .  A
C3781      C3786   1.400       .  A
C3782      C3783   1.394       .  A
C3782      H3791   1.084       .  S
C3783      C3784   1.404       .  A
C3783      H3792   1.083       .  S
C3784      C3785   1.406       .  A
C3785      C3786   1.399       .  A
C3785      H3793   1.083       .  S
C3786      H3794   1.083       .  S
C3795      C3796   1.407       .  A
C3795      C3800   1.406       .  A
C3796      C3797   1.403       .  A
C3796      H3809   1.083       .  S
C3797      C3798   1.402       .  A
C3797      H3810   1.083       .  S
C3798      C3799   1.399       .  A
C3798      C3801   1.443       .  S
C3799      C3800   1.397       .  A
C3799      H3811   1.084       .  S
C3800      H3812   1.083       .  S
C3801      C3802   1.208       .  T
C3802      C3803   1.443       .  S
C3803      C3804   1.400       .  A
C3803      C3808   1.395       .  A
C3804      C3805   1.402       .  A
C3804      H3813   1.083       .  S
C3805      C3806   1.415       .  A
C3805      H3814   1.079       .  S
C3806      C3807   1.417       .  A
C3807      C3808   1.395       .  A
C3807      H3815   1.083       .  S
C3808      H3816   1.084       .  S
