geometry optimzed in LAMMPS
_audit_creation_date              2020-11-30 
_audit_creation_method            'lammps2cif' 
_symmetry_space_group_name_H-M    'P1' 
_symmetry_Int_Tables_number       1 
_symmetry_cell_setting            triclinic 
loop_ 
_symmetry_equiv_pos_as_xyz 
  x,y,z 
_cell_length_a                    42.49293558 
_cell_length_b                    52.41411922792101 
_cell_length_c                    30.60037157492935 
_cell_angle_alpha                 90.10495200911535 
_cell_angle_beta                  90.05660249653342 
_cell_angle_gamma                 90.02633824701626 
loop_ 
_atom_site_label 
_atom_site_type_symbol 
_atom_site_fract_x 
_atom_site_fract_y 
_atom_site_fract_z 
_atom_site_charge 
C1          C  0.48457853  0.52329310  0.99294767     0.02300
C2          C  0.51734697  0.52449679  0.98466925     0.02300
C3          C  0.53456792  0.50166941  0.98035518    -0.18200
C4          C  0.52025815  0.47764349  0.98530308     0.02300
C5          C  0.48747315  0.47634690  0.99341225     0.02300
C6          C  0.47017774  0.49922804  0.99676670    -0.18200
H7          H  0.44502765  0.49831505  0.00253784     0.04400
H8          H  0.55986408  0.50266466  0.97593273     0.04400
C9          C  0.98540115  0.97571392  0.99565165     0.02300
C10         C  0.01784026  0.97571580  0.98606750     0.02300
C11         C  0.03375684  0.99898551  0.98141229    -0.18200
C12         C  0.01797591  0.02229703  0.98646193     0.02300
C13         C  0.98540842  0.02221948  0.99565789     0.02300
C14         C  0.96961229  0.99894813  0.00039559    -0.18200
H15         H  0.94441770  0.99891617  0.00614954     0.04400
H16         H  0.05890411  0.99893782  0.97534820     0.04400
O17         O  0.31082296  0.26067937  0.02359559    -0.88300
C18         C  0.22524736  0.27857614  0.07490056     0.87700
Mg19       Mg  0.32129831  0.27001586  0.95730916     1.58100
O20         O  0.23274328  0.21348775  0.05004610    -0.88000
O21         O  0.30518763  0.22574879  0.06234153    -0.75300
C22         C  0.19809702  0.23157586  0.84008038     0.92800
O23         O  0.26642221  0.30931466  0.00322400    -0.75200
O24         O  0.21976848  0.24829655  0.84090604    -0.82700
Mg25       Mg  0.29124796  0.29130332  0.06234887     1.58000
C26         C  0.16115637  0.17406176  0.98694532     0.92700
O27         O  0.31564674  0.27815872  0.12593486    -0.80900
H28         H  0.25445182  0.18004141  0.05857535    -0.06300
C29         C  0.18586813  0.25558697  0.96028362     0.87700
O30         O  0.30805663  0.22927009  0.93508923    -0.75400
O31         O  0.25099085  0.26754698  0.07489295    -0.88200
O32         O  0.16535867  0.18719372  0.02177695    -0.81000
C33         C  0.18761160  0.22566025  0.14723077     0.92800
C34         C  0.31050074  0.26295288  0.15768274     0.92700
Mg35       Mg  0.21674703  0.20493544  0.93670172     1.58000
O36         O  0.19227107  0.21750011  0.87304457    -0.80900
O37         O  0.24078403  0.18690134  0.99615567    -0.75200
O38         O  0.21645883  0.23239001  0.14750404    -0.81000
O39         O  0.33292839  0.31763199  0.04739597    -0.82700
O40         O  0.29072763  0.26419218  0.85209884    -0.81000
C41         C  0.24275446  0.19288671  0.03624013     0.87100
O42         O  0.25704883  0.22854913  0.92415479    -0.88200
O43         O  0.19693503  0.23550539  0.97479056    -0.88300
O44         O  0.20115727  0.26959745  0.93399065    -0.75400
Mg45       Mg  0.25958288  0.23016817  0.10176161     1.58000
O46         O  0.17349393  0.21957270  0.11195430    -0.82700
H47         H  0.34322107  0.23304684  0.02437388    -0.06500
O48         O  0.27355015  0.28265956  0.94920481    -0.88000
H49         H  0.25113097  0.31586609  0.94138777    -0.06300
H50         H  0.28434801  0.19817403  0.91295018    -0.06500
C51         C  0.26345700  0.30316237  0.96330452     0.87100
C52         C  0.32090408  0.23988081  0.03663915     0.87700
C53         C  0.28301149  0.21789388  0.92320842     0.87700
H54         H  0.16304089  0.26186588  0.97156341    -0.06400
O55         O  0.20010773  0.26760796  0.06232557    -0.75500
Mg56       Mg  0.24758552  0.26546971  0.89654550     1.58000
H57         H  0.22425545  0.29838926  0.08468891    -0.06500
C58         C  0.34587653  0.32319019  0.01100604     0.92700
O59         O  0.33254227  0.27946811  0.88736099    -0.82700
C60         C  0.31855612  0.27315850  0.85223932     0.92800
O61         O  0.28920219  0.24596430  0.15620127    -0.82700
Mg62       Mg  0.18564527  0.22707539  0.04112014     1.58200
O63         O  0.34087883  0.30986880  0.97669269    -0.81000
O64         O  0.17510041  0.17957163  0.95135485    -0.82700
O65         O  0.80482484  0.23196958  0.97730335    -0.88300
C66         C  0.71797388  0.21812622  0.92672630     0.87700
Mg67       Mg  0.81624002  0.22207434  0.04297997     1.58100
O68         O  0.73116728  0.28245919  0.95257808    -0.88000
O69         O  0.80221422  0.26673980  0.93773237    -0.75300
C70         C  0.69615803  0.26408686  0.16186155     0.92800
O71         O  0.75790682  0.18561723  0.99748499    -0.75200
O72         O  0.71750859  0.24710692  0.16115519    -0.82700
Mg73       Mg  0.78351432  0.20279623  0.93809718     1.58000
C74         C  0.66352949  0.32612882  0.01521695     0.92700
O75         O  0.80978953  0.21607914  0.87565089    -0.80900
H76         H  0.75525040  0.31483158  0.94387449    -0.06300
C77         C  0.68252867  0.24218988  0.04222571     0.87700
O78         O  0.80594890  0.26337793  0.06487314    -0.75400
O79         O  0.74451161  0.22789104  0.92629835    -0.88200
O80         O  0.66749001  0.31227550  0.98127693    -0.81000
C81         C  0.68358073  0.27332769  0.85640034     0.92800
C82         C  0.80515538  0.23120321  0.84361034     0.92700
Mg83       Mg  0.71607736  0.29179728  0.06607600     1.58000
O84         O  0.69132263  0.27890540  0.12945412    -0.80900
O85         O  0.74101277  0.30885396  0.00631734    -0.75200
O86         O  0.71165480  0.26476436  0.85557905    -0.81000
O87         O  0.82355289  0.17543209  0.95200209    -0.82700
O88         O  0.78870778  0.22940463  0.14864659    -0.81000
C89         C  0.74267814  0.30259893  0.96628508     0.87100
O90         O  0.75520290  0.26630718  0.07758347    -0.88200
O91         O  0.69441329  0.26205300  0.02793898    -0.88300
O92         O  0.69729580  0.22749282  0.06810273    -0.75400
Mg93       Mg  0.75563931  0.26470604  0.89974428     1.58000
O94         O  0.67048267  0.28030363  0.89183327    -0.82700
H95         H  0.83988996  0.25736359  0.97516912    -0.06500
O96         O  0.76814204  0.21131433  0.05224641    -0.88000
H97         H  0.74308425  0.17929904  0.05959715    -0.06300
H98         H  0.78466905  0.29557410  0.08698275    -0.06500
C99         C  0.75613915  0.19153055  0.03771922     0.87100
C100        C  0.81679790  0.25191818  0.96357879     0.87700
C101        C  0.78186219  0.27585821  0.07729317     0.87700
H102        H  0.65932778  0.23670373  0.03112275    -0.06400
O103        O  0.69385401  0.23026204  0.93995017    -0.75500
Mg104      Mg  0.74423498  0.22952306  0.10520911     1.58000
H105        H  0.71535661  0.19844866  0.91669943    -0.06500
C106        C  0.83554458  0.16849400  0.98824322     0.92700
O107        O  0.82965618  0.21306672  0.11314462    -0.82700
C108        C  0.81674385  0.22070375  0.14830895     0.92800
O109        O  0.78317533  0.24765081  0.84418458    -0.82700
Mg110      Mg  0.68318853  0.27144165  0.96197672     1.58200
O111        O  0.83122436  0.18108248  0.02348979    -0.81000
O112        O  0.67555256  0.31999563  0.05203184    -0.82700
O113        O  0.68971295  0.74145345  0.02211728    -0.88300
C114        C  0.77431786  0.72690745  0.08029401     0.87700
Mg115      Mg  0.68098293  0.73089764  0.95550628     1.58100
O116        O  0.76336519  0.79103196  0.05089760    -0.88000
O117        O  0.69174036  0.77634762  0.06186511    -0.75300
C118        C  0.80580769  0.76801033  0.84414335     0.92800
O119        O  0.73635394  0.69358480  0.00705242    -0.75200
O120        O  0.78512032  0.75058348  0.84545705    -0.82700
Mg121      Mg  0.70900108  0.71199065  0.06329484     1.58000
C122        C  0.83389080  0.83084123  0.98892668     0.92700
O123        O  0.68173178  0.72605294  0.12402288    -0.80900
H124        H  0.73846131  0.82333735  0.05430488    -0.06300
C125        C  0.81444829  0.74801288  0.96729271     0.87700
O126        O  0.69307151  0.77136048  0.93236024    -0.75400
O127        O  0.74805130  0.73694608  0.07743644    -0.88200
O128        O  0.82799669  0.81907239  0.02442014    -0.81000
C129        C  0.80878896  0.78219440  0.14997927     0.92800
C130        C  0.68612681  0.74105803  0.15640882     0.92700
Mg131      Mg  0.78272380  0.79696307  0.93703747     1.58000
O132        O  0.81000142  0.78343584  0.87593035    -0.80900
O133        O  0.75542476  0.81535354  0.99382584    -0.75200
O134        O  0.78051292  0.77388285  0.14944469    -0.81000
O135        O  0.66887618  0.68417477  0.04632609    -0.82700
O136        O  0.71492355  0.73362196  0.85111515    -0.81000
C137        C  0.75215680  0.81049119  0.03423016     0.87100
O138        O  0.74417632  0.77219969  0.92311568    -0.88200
O139        O  0.80193891  0.76814058  0.97914314    -0.88300
O140        O  0.80093741  0.73283053  0.94092728    -0.75400
Mg141      Mg  0.73718752  0.77416626  0.10274880     1.58000
O142        O  0.82246811  0.78952335  0.11524794    -0.82700
H143        H  0.65523373  0.76740691  0.02183655    -0.06500
O144        O  0.72904658  0.71868586  0.95099369    -0.88000
H145        H  0.75312970  0.68604484  0.94635696    -0.06300
H146        H  0.71673875  0.80201589  0.90884723    -0.06500
C147        C  0.73971464  0.69883987  0.96688125     0.87100
C148        C  0.67777314  0.76166646  0.03495187     0.87700
C149        C  0.71811541  0.78256206  0.92037830     0.87700
H150        H  0.83697083  0.74274286  0.98103360    -0.06400
O151        O  0.79925752  0.73856323  0.06892595    -0.75500
Mg152      Mg  0.75605364  0.73470733  0.89943904     1.58000
H153        H  0.77604956  0.70747601  0.09183063    -0.06500
C154        C  0.65781173  0.67780703  0.00901401     0.92700
O155        O  0.67153684  0.72042301  0.88477029    -0.82700
C156        C  0.68680794  0.72531996  0.85001570     0.92800
O157        O  0.70793210  0.75767378  0.15669337    -0.82700
Mg158      Mg  0.81124006  0.77912439  0.04507798     1.58200
O159        O  0.66325372  0.69107559  0.97497889    -0.81000
O160        O  0.82271098  0.82364260  0.95236232    -0.82700
O161        O  0.19342305  0.76111313  0.97606213    -0.88300
C162        C  0.27852016  0.77749459  0.92375359     0.87700
Mg163      Mg  0.18185936  0.77239468  0.04140097     1.58100
O164        O  0.26872800  0.71369523  0.95381487    -0.88000
O165        O  0.19684023  0.72595852  0.93742758    -0.75300
C166        C  0.30323203  0.73734555  0.16471124     0.92800
O167        O  0.23775432  0.80974899  0.99292683    -0.75200
O168        O  0.28206835  0.75443436  0.16191810    -0.82700
Mg169      Mg  0.21293116  0.79040853  0.93487510     1.58000
C170        C  0.33864487  0.67378504  0.01872509     0.92700
O171        O  0.18818918  0.77583133  0.87231954    -0.80900
H172        H  0.24552377  0.68063830  0.94878353    -0.06300
C173        C  0.31640331  0.75756870  0.04179711     0.87700
O174        O  0.19439034  0.73245530  0.06735308    -0.75400
O175        O  0.25268268  0.76659373  0.92420376    -0.88200
O176        O  0.33412614  0.68720183  0.98450245    -0.81000
C177        C  0.31570624  0.72311582  0.85754086     0.92800
C178        C  0.19356721  0.76099959  0.84003531     0.92700
Mg179      Mg  0.28508503  0.70761615  0.06901031     1.58000
O180        O  0.30902598  0.72203578  0.13305167    -0.80900
O181        O  0.26041865  0.68895084  0.01020734    -0.75200
O182        O  0.28716228  0.73041526  0.85623391    -0.81000
O183        O  0.17190772  0.81683514  0.94690363    -0.82700
O184        O  0.21038323  0.76991797  0.14776397    -0.81000
C185        C  0.25802412  0.69384763  0.96970400     0.87100
O186        O  0.24523314  0.73213592  0.07989504    -0.88200
O187        O  0.30500098  0.73722340  0.02865807    -0.88300
O188        O  0.30137241  0.77243618  0.06711954    -0.75400
Mg189      Mg  0.24324514  0.72906995  0.89934541     1.58000
O190        O  0.32918014  0.71676919  0.89303875    -0.82700
H191        H  0.15937779  0.73476096  0.97566391    -0.06500
O192        O  0.22942600  0.78546512  0.04991038    -0.88000
H193        H  0.25284784  0.81848159  0.05409458    -0.06300
H194        H  0.21764819  0.70228047  0.09344570    -0.06500
C195        C  0.24023496  0.80515111  0.03353124     0.87100
C196        C  0.18207133  0.74066244  0.96332873     0.87700
C197        C  0.21920325  0.72157959  0.08123274     0.87700
H198        H  0.33936240  0.76328670  0.03017316    -0.06400
O199        O  0.30335407  0.76688635  0.93813587    -0.75500
Mg200      Mg  0.25462090  0.76992431  0.10444700     1.58000
H201        H  0.27981650  0.79693192  0.91212358    -0.06500
C202        C  0.15963151  0.82395770  0.98281195     0.92700
O203        O  0.16829857  0.78303412  0.11085749    -0.82700
C204        C  0.18176386  0.77717185  0.14663534     0.92800
O205        O  0.21511256  0.74417337  0.84160000    -0.82700
Mg206      Mg  0.31617822  0.72674740  0.96279483     1.58200
O207        O  0.16421553  0.81176629  0.01832353    -0.81000
O208        O  0.32638899  0.67998341  0.05539550    -0.82700
N209        N  0.00109344  0.22612609  0.43573419    -0.36600
N210        N  0.05094492  0.22624892  0.49902363    -0.57100
N211        N  0.00247205  0.22485764  0.56594905    -0.36500
N212        N  0.95256365  0.22713067  0.50185147    -0.57100
C213        C  0.02615805  0.23416403  0.41223305     0.27000
C214        C  0.97503445  0.23289529  0.41327401     0.27000
C215        C  0.02875362  0.23037008  0.58906194     0.27000
C216        C  0.97761715  0.23206708  0.59067182     0.27000
C217        C  0.06770841  0.22055375  0.46285374     0.35700
C218        C  0.06831691  0.21866421  0.53349035     0.35700
C219        C  0.93464526  0.22085301  0.46695043     0.35700
C220        C  0.93523207  0.22225270  0.53783486     0.35700
C221        C  0.01581154  0.24708390  0.37538374    -0.21800
C222        C  0.98349498  0.24606471  0.37584244    -0.21800
C223        C  0.02054919  0.24169550  0.62843935    -0.21800
C224        C  0.98825609  0.24274132  0.62947368    -0.21800
C225        C  0.09597347  0.20919287  0.47432982    -0.22900
C226        C  0.09641164  0.20809251  0.51931743    -0.22900
C227        C  0.90555307  0.21203310  0.48080686    -0.22900
C228        C  0.90582369  0.21317562  0.52587342    -0.22900
C229        C  0.05767638  0.22675145  0.42021375    -0.18200
C230        C  0.94423086  0.22464422  0.42318186    -0.18200
C231        C  0.94572100  0.22684264  0.58097485    -0.18200
C232        C  0.05961824  0.22300286  0.57730762    -0.18200
H233        H  0.03010383  0.25537892  0.34982468     0.14700
H234        H  0.96797218  0.25347718  0.35083801     0.14700
H235        H  0.03619380  0.24801626  0.65421347     0.14700
H236        H  0.97418018  0.24998793  0.65621550     0.14700
H237        H  0.11429862  0.20237717  0.45275841     0.13000
H238        H  0.11521511  0.20045294  0.53925319     0.13000
H239        H  0.88611498  0.20562621  0.46074062     0.13000
H240        H  0.88672856  0.20775827  0.54732106     0.13000
H241        H  0.00168048  0.21323821  0.46161491     0.26200
H242        H  0.00154301  0.21362143  0.53788246     0.26200
N243        N  0.99824629  0.77930301  0.56574133    -0.36600
N244        N  0.04632450  0.77538650  0.49898835    -0.57100
N245        N  0.99634145  0.77434322  0.43506335    -0.36500
N246        N  0.94827155  0.77570004  0.50041630    -0.57100
C247        C  0.02413444  0.77395321  0.58995683     0.27000
C248        C  0.97281601  0.77404467  0.59075319     0.27000
C249        C  0.02161741  0.76628444  0.41218282     0.27000
C250        C  0.97056108  0.76690216  0.41251628     0.27000
C251        C  0.06439213  0.78220602  0.53332276     0.35700
C252        C  0.06315431  0.78054740  0.46266656     0.35700
C253        C  0.93083674  0.78179741  0.53565413     0.35700
C254        C  0.93002099  0.78001875  0.46502102     0.35700
C255        C  0.01501214  0.76511701  0.63071562    -0.21800
C256        C  0.98266725  0.76518731  0.63123331    -0.21800
C257        C  0.01175327  0.75274486  0.37563077    -0.21800
C258        C  0.97943006  0.75335277  0.37564372    -0.21800
C259        C  0.09302473  0.79161145  0.51897277    -0.22900
C260        C  0.09208927  0.79089470  0.47399520    -0.22900
C261        C  0.90109593  0.78968808  0.52272563    -0.22900
C262        C  0.90065361  0.78871963  0.47774948    -0.22900
C263        C  0.05569136  0.77856872  0.57726468    -0.18200
C264        C  0.94104713  0.77878508  0.57920230    -0.18200
C265        C  0.93959685  0.77475089  0.42185555    -0.18200
C266        C  0.05283343  0.77437219  0.42004838    -0.18200
H267        H  0.03008222  0.75946466  0.65753671     0.14700
H268        H  0.96806443  0.75958614  0.65854853     0.14700
H269        H  0.02638423  0.74435574  0.35049257     0.14700
H270        H  0.96417331  0.74544100  0.35071549     0.14700
H271        H  0.11240087  0.79840382  0.53882186     0.13000
H272        H  0.11067733  0.79711761  0.45237519     0.13000
H273        H  0.88177661  0.79550106  0.54350033     0.13000
H274        H  0.88093412  0.79357883  0.45698150     0.13000
H275        H  0.99792763  0.78880561  0.53593559     0.26200
H276        H  0.99671828  0.78772700  0.46027484     0.26200
N277        N  0.49631766  0.72480755  0.43944551    -0.36600
N278        N  0.54856636  0.71994727  0.50145362    -0.57100
N279        N  0.50329917  0.71817657  0.57050269    -0.36500
N280        N  0.45112387  0.72581847  0.50887458    -0.57100
C281        C  0.52118977  0.73076820  0.41395203     0.27000
C282        C  0.47005777  0.73190788  0.41755619     0.27000
C283        C  0.53046607  0.72150255  0.59299457     0.27000
C284        C  0.47957749  0.72547751  0.59712353     0.27000
C285        C  0.56429779  0.71668947  0.46366677     0.35700
C286        C  0.56795194  0.71201674  0.53368048     0.35700
C287        C  0.43084662  0.72297679  0.47515212     0.35700
C288        C  0.43472575  0.72072326  0.54553226     0.35700
C289        C  0.51059989  0.74191892  0.37552526    -0.21800
C290        C  0.47833127  0.74255577  0.37776078    -0.21800
C291        C  0.52388378  0.73134356  0.63409847    -0.21800
C292        C  0.49177847  0.73376651  0.63674784    -0.21800
C293        C  0.59398818  0.70679035  0.47180241    -0.22900
C294        C  0.59622528  0.70363742  0.51633151    -0.22900
C295        C  0.40127847  0.71641193  0.49043005    -0.22900
C296        C  0.40372605  0.71499723  0.53517998    -0.22900
C297        C  0.55289699  0.72422910  0.42242387    -0.18200
C298        C  0.43876945  0.72720726  0.43102513    -0.18200
C299        C  0.44712119  0.72260047  0.58819835    -0.18200
C300        C  0.56081219  0.71419648  0.57850016    -0.18200
H301        H  0.52462822  0.74835903  0.34817312     0.14700
H302        H  0.46269529  0.74970701  0.35266685     0.14700
H303        H  0.54046382  0.73603692  0.65976087     0.14700
H304        H  0.47882340  0.74052000  0.66492313     0.14700
H305        H  0.61216262  0.70247312  0.44816052     0.13000
H306        H  0.61646208  0.69641299  0.53386501     0.13000
H307        H  0.38019554  0.71305083  0.47140433     0.13000
H308        H  0.38485180  0.71031233  0.55749065     0.13000
H309        H  0.49705704  0.71344214  0.46736726     0.26200
H310        H  0.50071181  0.70829019  0.54110029     0.26200
N311        N  0.50056970  0.28556875  0.56771459    -0.36600
N312        N  0.45234865  0.28246805  0.50166637    -0.57100
N313        N  0.50140306  0.28029945  0.43663292    -0.36500
N314        N  0.54984380  0.28183997  0.50325115    -0.57100
C315        C  0.47468257  0.27958618  0.59120468     0.27000
C316        C  0.52575647  0.27869023  0.59200851     0.27000
C317        C  0.47603610  0.27305210  0.41286503     0.27000
C318        C  0.52724640  0.27367566  0.41352433     0.27000
C319        C  0.43405676  0.28880849  0.53594241     0.35700
C320        C  0.43447260  0.28529861  0.46564342     0.35700
C321        C  0.56754673  0.28783026  0.53843866     0.35700
C322        C  0.56801502  0.28573601  0.46779404     0.35700
C323        C  0.48346839  0.26839049  0.63037468    -0.21800
C324        C  0.51573150  0.26774932  0.63082788    -0.21800
C325        C  0.48592227  0.26169603  0.37426900    -0.21800
C326        C  0.51823044  0.26200775  0.37476504    -0.21800
C327        C  0.40429826  0.29576521  0.52173518    -0.22900
C328        C  0.40448186  0.29330708  0.47697818    -0.22900
C329        C  0.59725067  0.29561450  0.52538550    -0.22900
C330        C  0.59757190  0.29422494  0.48039579    -0.22900
C331        C  0.44347944  0.28593513  0.57972733    -0.18200
C332        C  0.55741976  0.28436886  0.58188934    -0.18200
C333        C  0.55862003  0.27985676  0.42473599    -0.18200
C334        C  0.44434972  0.27847294  0.42337740    -0.18200
H335        H  0.46819697  0.26169800  0.65622510     0.14700
H336        H  0.53019384  0.26050449  0.65716259     0.14700
H337        H  0.47144265  0.25438223  0.34797912     0.14700
H338        H  0.53336955  0.25489114  0.34906214     0.14700
H339        H  0.38435941  0.30137384  0.54150336     0.13000
H340        H  0.38471649  0.29661161  0.45538879     0.13000
H341        H  0.61671509  0.30131599  0.54604251     0.13000
H342        H  0.61734681  0.29861041  0.45944313     0.13000
H343        H  0.50105054  0.29685909  0.53974490     0.26200
H344        H  0.50114245  0.29203324  0.46406872     0.26200
C345        C  0.38201102  0.69247340  0.25516877    -0.17800
C346        C  0.40014817  0.69056233  0.29312455    -0.19900
C347        C  0.39670239  0.70843463  0.32694059     0.20700
C348        C  0.37411325  0.72803036  0.32313241    -0.02900
C349        C  0.35576181  0.72995180  0.28472326    -0.05900
C350        C  0.36010941  0.71228166  0.25038697     0.21000
C351        C  0.33365668  0.74984608  0.28026113     0.19200
C352        C  0.32956584  0.76727055  0.31476762    -0.17400
C353        C  0.34789179  0.76545466  0.35277617    -0.19600
C354        C  0.37057280  0.74613297  0.35705049     0.20600
C355        C  0.39057597  0.74509135  0.39373759    -0.32600
C356        C  0.41400770  0.72621164  0.39658340     0.01300
C357        C  0.41629587  0.70758031  0.36371349    -0.24000
C358        C  0.34289147  0.71487368  0.21155025    -0.28500
C359        C  0.32120439  0.73488673  0.20626442     0.07000
C360        C  0.31644536  0.75215206  0.24114187    -0.27200
H361        H  0.38547303  0.67866085  0.22922843     0.11700
H362        H  0.41732012  0.67536161  0.29567897     0.12900
H363        H  0.31254612  0.78257493  0.31206618     0.11900
H364        H  0.34469297  0.77943353  0.37851870     0.11200
H365        H  0.38891167  0.75951567  0.41906275     0.16600
H366        H  0.43438144  0.69304785  0.36602757     0.12500
H367        H  0.34655620  0.70129205  0.18528984     0.15300
H368        H  0.29960782  0.76755155  0.23774030     0.15100
C369        C  0.41375918  0.68241769  0.72581737    -0.17800
C370        C  0.39584784  0.68276731  0.76407898    -0.19900
C371        C  0.37366291  0.70213638  0.77118372     0.20700
C372        C  0.36907714  0.72114212  0.73914760    -0.02900
C373        C  0.38742112  0.72097809  0.70081753    -0.05900
C374        C  0.40993181  0.70155296  0.69427688     0.21000
C375        C  0.38358266  0.74045235  0.66940609     0.19200
C376        C  0.36101866  0.75957582  0.67619172    -0.17400
C377        C  0.34249031  0.75952611  0.71393534    -0.19600
C378        C  0.34647313  0.74049593  0.74567309     0.20600
C379        C  0.32856466  0.74064241  0.78409347    -0.32600
C380        C  0.33366592  0.72215062  0.81653589     0.01300
C381        C  0.35620076  0.70297322  0.80994005    -0.24000
C382        C  0.42860287  0.70186698  0.65667359    -0.28500
C383        C  0.42535500  0.72150853  0.62589035     0.07000
C384        C  0.40272597  0.74065028  0.63215142    -0.27200
H385        H  0.43090275  0.66736195  0.72114858     0.11700
H386        H  0.39947686  0.66796826  0.78824378     0.12900
H387        H  0.35778236  0.77462658  0.65238025     0.11900
H388        H  0.32526963  0.77453086  0.71852855     0.11200
H389        H  0.31125857  0.75553497  0.78934433     0.16600
H390        H  0.35990247  0.68858627  0.83484632     0.12500
H391        H  0.44618883  0.68716594  0.65161201     0.15300
H392        H  0.40049343  0.75585017  0.60835885     0.15100
C393        C  0.17135535  0.75773479  0.30418308    -0.17800
C394        C  0.15337393  0.75706393  0.34246472    -0.19900
C395        C  0.12293748  0.76742132  0.34315257     0.20700
C396        C  0.11066839  0.77882825  0.30497010    -0.02900
C397        C  0.12851309  0.77899052  0.26611174    -0.05900
C398        C  0.15901693  0.76841919  0.26576018     0.21000
C399        C  0.11568336  0.78948974  0.22754689     0.19200
C400        C  0.08537003  0.80008446  0.22833963    -0.17400
C401        C  0.06795237  0.80039466  0.26705043    -0.19600
C402        C  0.08039839  0.78978923  0.30540967     0.20600
C403        C  0.06282953  0.78956146  0.34398054    -0.32600
C404        C  0.07411760  0.77712066  0.38160040     0.01300
C405        C  0.10430638  0.76613902  0.38098482    -0.24000
C406        C  0.17648801  0.76841948  0.22688499    -0.28500
C407        C  0.16369187  0.77845453  0.18804839     0.07000
C408        C  0.13326218  0.78903866  0.18878706    -0.27200
H409        H  0.19478187  0.74958234  0.30447272     0.11700
H410        H  0.16324817  0.74837863  0.37150724     0.12900
H411        H  0.07514327  0.80816569  0.19901836     0.11900
H412        H  0.04459194  0.80868176  0.26687174     0.11200
H413        H  0.03968878  0.79828604  0.34437568     0.16600
H414        H  0.11300495  0.75620924  0.40958684     0.12500
H415        H  0.19985483  0.76013081  0.22673699     0.15300
H416        H  0.12318009  0.79689218  0.15916727     0.15100
C417        C  0.14570174  0.73729055  0.65167293    -0.17800
C418        C  0.16420672  0.73420289  0.68924387    -0.19900
C419        C  0.16102082  0.75097098  0.72485134     0.20700
C420        C  0.13963628  0.77150156  0.72192753    -0.02900
C421        C  0.12104939  0.77467101  0.68400249    -0.05900
C422        C  0.12369259  0.75720977  0.64901051     0.21000
C423        C  0.09910255  0.79485354  0.68174199     0.19200
C424        C  0.09671594  0.81216571  0.71656415    -0.17400
C425        C  0.11513871  0.80905151  0.75402520    -0.19600
C426        C  0.13625261  0.78856970  0.75729834     0.20600
C427        C  0.15372468  0.78477030  0.79558778    -0.32600
C428        C  0.17482157  0.76418618  0.79928672     0.01300
C429        C  0.17852619  0.74745544  0.76347429    -0.24000
C430        C  0.10342540  0.75943251  0.61286649    -0.28500
C431        C  0.08045442  0.77873255  0.61166087     0.07000
C432        C  0.07906772  0.79680432  0.64550467    -0.27200
H433        H  0.14818897  0.72380234  0.62502395     0.11700
H434        H  0.18066956  0.71844794  0.69071701     0.12900
H435        H  0.08012941  0.82783966  0.71519720     0.11900
H436        H  0.11249256  0.82245099  0.78077602     0.11200
H437        H  0.15085954  0.79798109  0.82258732     0.16600
H438        H  0.19487020  0.73163916  0.76569607     0.12500
H439        H  0.10444818  0.74550932  0.58665848     0.15300
H440        H  0.06141522  0.81172496  0.64434446     0.15100
C441        C  0.67653571  0.74303489  0.69149833    -0.17800
C442        C  0.65927003  0.74098626  0.65259908    -0.19900
C443        C  0.63259200  0.72520578  0.65036362     0.20700
C444        C  0.62417048  0.71041904  0.68707602    -0.02900
C445        C  0.64113054  0.71291796  0.72654312    -0.05900
C446        C  0.66714180  0.72961500  0.72898751     0.21000
C447        C  0.63121666  0.69947647  0.76401610     0.19200
C448        C  0.60567238  0.68261289  0.76117496    -0.17400
C449        C  0.58919831  0.67983266  0.72194226    -0.19600
C450        C  0.59779445  0.69409776  0.68510289     0.20600
C451        C  0.57927267  0.69350602  0.64729285    -0.32600
C452        C  0.58564331  0.71002698  0.61226569     0.01300
C453        C  0.61308680  0.72507941  0.61318679    -0.24000
C454        C  0.68258730  0.73316654  0.76919124    -0.28500
C455        C  0.67173781  0.72074678  0.80711735     0.07000
C456        C  0.64640262  0.70362447  0.80400251    -0.27200
H457        H  0.69663391  0.75575005  0.69265044     0.11700
H458        H  0.66630800  0.75225167  0.62460771     0.12900
H459        H  0.59799598  0.67197999  0.78957417     0.11900
H460        H  0.56903301  0.66718677  0.72085442     0.11200
H461        H  0.55827899  0.68173581  0.64640208     0.16600
H462        H  0.61810793  0.73783004  0.58622716     0.12500
H463        H  0.70232495  0.74623091  0.77126607     0.15300
H464        H  0.63836211  0.69356811  0.83285079     0.15100
C465        C  0.61057436  0.69237729  0.24585176    -0.17800
C466        C  0.59284374  0.68957339  0.28396254    -0.19900
C467        C  0.59328347  0.70860716  0.31621056     0.20700
C468        C  0.61189821  0.73065010  0.31025294    -0.02900
C469        C  0.62970498  0.73349753  0.27176445    -0.05900
C470        C  0.62898191  0.71426941  0.23941025     0.21000
C471        C  0.64818060  0.75556669  0.26565789     0.19200
C472        C  0.64860537  0.77462767  0.29794068    -0.17400
C473        C  0.63087855  0.77183911  0.33610051    -0.19600
C474        C  0.61246887  0.74995162  0.34253660     0.20600
C475        C  0.59412740  0.74720177  0.38023353    -0.32600
C476        C  0.57515609  0.72555562  0.38560281     0.01300
C477        C  0.57497586  0.70622900  0.35393344    -0.24000
C478        C  0.64687523  0.71714471  0.20133330    -0.28500
C479        C  0.66578502  0.73885817  0.19534424     0.07000
C480        C  0.66610308  0.75808870  0.22753351    -0.27200
H481        H  0.60985465  0.67742894  0.22136416     0.11700
H482        H  0.57866905  0.67256271  0.28813232     0.12900
H483        H  0.66266509  0.79169353  0.29367737     0.11900
H484        H  0.63148317  0.78683557  0.36051029     0.11200
H485        H  0.59376896  0.76214765  0.40478152     0.16600
H486        H  0.55995979  0.68969773  0.35834340     0.12500
H487        H  0.64656047  0.70221070  0.17677647     0.15300
H488        H  0.68045683  0.77498897  0.22307125     0.15100
C489        C  0.83355305  0.73838457  0.69598858    -0.17800
C490        C  0.85184862  0.74027169  0.65820010    -0.19900
C491        C  0.87449153  0.75960954  0.65429131     0.20700
C492        C  0.87822128  0.77761806  0.68831823    -0.02900
C493        C  0.85993413  0.77559672  0.72654640    -0.05900
C494        C  0.83774081  0.75573655  0.73050099     0.21000
C495        C  0.86430307  0.79314319  0.76110321     0.19200
C496        C  0.88632089  0.81291640  0.75666404    -0.17400
C497        C  0.90441418  0.81496583  0.71870972    -0.19600
C498        C  0.90082524  0.79723249  0.68467756     0.20600
C499        C  0.92015846  0.79824269  0.64772438    -0.32600
C500        C  0.91746324  0.77970172  0.61477909     0.01300
C501        C  0.89418612  0.76078104  0.61766032    -0.24000
C502        C  0.82034477  0.75339475  0.76907041    -0.28500
C503        C  0.82485346  0.77057508  0.80397912     0.07000
C504        C  0.84679444  0.79048736  0.79962507    -0.27200
H505        H  0.81644124  0.72312227  0.69848819     0.11700
H506        H  0.84860538  0.72638951  0.63229961     0.12900
H507        H  0.88981394  0.82662710  0.78276985     0.11900
H508        H  0.92160485  0.83017043  0.71628278     0.11200
H509        H  0.93817791  0.81282342  0.64520233     0.16600
H510        H  0.89229666  0.74647313  0.59214818     0.12500
H511        H  0.80333683  0.73806275  0.77187464     0.15300
H512        H  0.85024884  0.80394515  0.82614609     0.15100
C513        C  0.84444018  0.74934455  0.33842785    -0.17800
C514        C  0.82636158  0.75035105  0.30020269    -0.19900
C515        C  0.83506363  0.76644566  0.26563419     0.20700
C516        C  0.86223316  0.78175882  0.26966729    -0.02900
C517        C  0.88036663  0.78087764  0.30838030    -0.05900
C518        C  0.87149780  0.76448219  0.34286623     0.21000
C519        C  0.90761698  0.79609282  0.31227033     0.19200
C520        C  0.91646047  0.81209113  0.27765223    -0.17400
C521        C  0.89859513  0.81285669  0.23923417    -0.19600
C522        C  0.87150773  0.79770868  0.23484579     0.20600
C523        C  0.85373618  0.79801775  0.19610865    -0.32600
C524        C  0.82656043  0.78279527  0.19179753     0.01300
C525        C  0.81727998  0.76723553  0.22694226    -0.24000
C526        C  0.89020025  0.76312016  0.38071707    -0.28500
C527        C  0.91758637  0.77797837  0.38441442     0.07000
C528        C  0.92589652  0.79464254  0.35032466    -0.27200
H529        H  0.83732636  0.73661265  0.36446689     0.11700
H530        H  0.80564129  0.73839136  0.29756596     0.12900
H531        H  0.93737279  0.82384823  0.28013377     0.11900
H532        H  0.90605590  0.82521597  0.21285175     0.11200
H533        H  0.86110329  0.81008996  0.16926127     0.16600
H534        H  0.79661462  0.75523446  0.22379432     0.12500
H535        H  0.88403206  0.75003667  0.40673852     0.15300
H536        H  0.94715437  0.80599594  0.35313609     0.15100
C537        C  0.66437758  0.23477468  0.30915285    -0.17800
C538        C  0.64577656  0.23740999  0.34661083    -0.19900
C539        C  0.62384102  0.25732629  0.34986120     0.20700
C540        C  0.62050912  0.27469476  0.31490400    -0.02900
C541        C  0.63911751  0.27193381  0.27704410    -0.05900
C542        C  0.66125069  0.25195142  0.27424879     0.21000
C543        C  0.63545912  0.28912354  0.24195029     0.19200
C544        C  0.61325451  0.30884024  0.24491703    -0.17400
C545        C  0.59484228  0.31160021  0.28242420    -0.19600
C546        C  0.59831363  0.29466330  0.31752394     0.20600
C547        C  0.57946282  0.29699617  0.35477466    -0.32600
C548        C  0.58225514  0.27949817  0.38920973     0.01300
C549        C  0.60467580  0.25988426  0.38694438    -0.24000
C550        C  0.67983067  0.24950368  0.23660153    -0.28500
C551        C  0.67644256  0.26668869  0.20152715     0.07000
C552        C  0.65405362  0.28635664  0.20448117    -0.27200
H553        H  0.68118076  0.21926212  0.30744779     0.11700
H554        H  0.64850882  0.22383962  0.37301248     0.12900
H555        H  0.61012097  0.32214129  0.21819796     0.11900
H556        H  0.57777441  0.32692910  0.28390571     0.11200
H557        H  0.56177682  0.31187609  0.35652427     0.16600
H558        H  0.60632532  0.24617360  0.41333717     0.12500
H559        H  0.69688061  0.23416713  0.23464064     0.15300
H560        H  0.65115478  0.29965377  0.17768529     0.15100
C561        C  0.59780971  0.31161958  0.76970779    -0.17800
C562        C  0.58144055  0.31428293  0.73035730    -0.19900
C563        C  0.59009238  0.29988418  0.69360079     0.20700
C564        C  0.61554490  0.28269666  0.69632451    -0.02900
C565        C  0.63236798  0.28028776  0.73588316    -0.05900
C566        C  0.62330399  0.29472075  0.77277684     0.21000
C567        C  0.65805600  0.26331636  0.73860344     0.19200
C568        C  0.66640205  0.24867187  0.70193502    -0.17400
C569        C  0.64930555  0.25067775  0.66295837    -0.19600
C570        C  0.62383256  0.26760910  0.65979988     0.20600
C571        C  0.60587610  0.26916047  0.62132029    -0.32600
C572        C  0.58009864  0.28588306  0.61886945     0.01300
C573        C  0.57305650  0.30177260  0.65461622    -0.24000
C574        C  0.63988463  0.29204521  0.81209806    -0.28500
C575        C  0.66584030  0.27549664  0.81493431     0.07000
C576        C  0.67484082  0.26123394  0.77797259    -0.27200
H577        H  0.59054622  0.32280660  0.79774969     0.11700
H578        H  0.56176473  0.32739630  0.72881267     0.12900
H579        H  0.68600339  0.23549077  0.70351578     0.11900
H580        H  0.65595605  0.23892339  0.63530965     0.11200
H581        H  0.61107589  0.25667383  0.59398533     0.16600
H582        H  0.55306254  0.31458547  0.65273233     0.12500
H583        H  0.63287529  0.30318840  0.84034414     0.15300
H584        H  0.69467297  0.24828259  0.77999475     0.15100
C585        C  0.82876646  0.24480360  0.30371842    -0.17800
C586        C  0.84614485  0.24500979  0.34256356    -0.19900
C587        C  0.87487916  0.23195345  0.34531728     0.20700
C588        C  0.88592413  0.21813591  0.30872020    -0.02900
C589        C  0.86858869  0.21822175  0.26929381    -0.05900
C590        C  0.83993665  0.23170857  0.26681576     0.21000
C591        C  0.88018175  0.20520112  0.23221589     0.19200
C592        C  0.90868100  0.19176376  0.23518865    -0.17400
C593        C  0.92570955  0.19147115  0.27437550    -0.19600
C594        C  0.91464895  0.20476913  0.31116100     0.20600
C595        C  0.93228791  0.20563257  0.34987731    -0.32600
C596        C  0.92224211  0.22042651  0.38577212     0.01300
C597        C  0.89323936  0.23320288  0.38346954    -0.24000
C598        C  0.82309292  0.23214359  0.22739100    -0.28500
C599        C  0.83460242  0.21952983  0.19002193     0.07000
C600        C  0.86321751  0.20604497  0.19278380    -0.27200
H601        H  0.80675405  0.25519811  0.30236245     0.11700
H602        H  0.83725219  0.25561967  0.37034520     0.12900
H603        H  0.91791263  0.18161371  0.20711311     0.11900
H604        H  0.94779151  0.18116658  0.27570996     0.11200
H605        H  0.95467154  0.19574018  0.35153814     0.16600
H606        H  0.88560754  0.24492323  0.41068186     0.12500
H607        H  0.80117513  0.24267237  0.22568983     0.15300
H608        H  0.87227539  0.19615912  0.16430601     0.15100
C609        C  0.83593359  0.26396670  0.69848668    -0.17800
C610        C  0.85505577  0.26310109  0.66133484    -0.19900
C611        C  0.87924980  0.24500344  0.65800006     0.20700
C612        C  0.88442498  0.22776188  0.69273475    -0.02900
C613        C  0.86515354  0.22867924  0.73030037    -0.05900
C614        C  0.84069477  0.24676875  0.73297727     0.21000
C615        C  0.87031308  0.21147883  0.76506096     0.19200
C616        C  0.89493236  0.19371271  0.76210930    -0.17400
C617        C  0.91404581  0.19280496  0.72490089    -0.19600
C618        C  0.90888366  0.20964869  0.68999609     0.20600
C619        C  0.92794558  0.20889614  0.65261501    -0.32600
C620        C  0.92306547  0.22612679  0.61805110     0.01300
C621        C  0.89858113  0.24403552  0.62081873    -0.24000
C622        C  0.82131698  0.24732871  0.76998323    -0.28500
C623        C  0.82594932  0.23007300  0.80466277     0.07000
C624        C  0.85071218  0.21229066  0.80202464    -0.27200
H625        H  0.81732308  0.27805935  0.70017935     0.11700
H626        H  0.85087184  0.27656743  0.63514606     0.12900
H627        H  0.89934255  0.18044427  0.78852775     0.11900
H628        H  0.93286318  0.17888859  0.72339797     0.11200
H629        H  0.94706610  0.19524970  0.65059889     0.16600
H630        H  0.89515753  0.25756401  0.59447986     0.12500
H631        H  0.80253545  0.26128342  0.77165753     0.15300
H632        H  0.85470721  0.19904290  0.82861990     0.15100
C633        C  0.41625274  0.31865891  0.72504004    -0.17800
C634        C  0.39973112  0.31596492  0.76418637    -0.19900
C635        C  0.37500080  0.29834037  0.76736589     0.20700
C636        C  0.36614631  0.28382213  0.73045048    -0.02900
C637        C  0.38304022  0.28631998  0.69112714    -0.05900
C638        C  0.40841673  0.30362643  0.68865849     0.21000
C639        C  0.37532854  0.27080236  0.65487917     0.19200
C640        C  0.34982400  0.25387974  0.65760591    -0.17400
C641        C  0.33267186  0.25174696  0.69639798    -0.19600
C642        C  0.34103771  0.26626717  0.73319422     0.20600
C643        C  0.32523560  0.26312646  0.77296353    -0.32600
C644        C  0.33473560  0.27687029  0.81021151     0.01300
C645        C  0.35938420  0.29463356  0.80705082    -0.24000
C646        C  0.42641416  0.30475903  0.65052628    -0.28500
C647        C  0.42013674  0.28817537  0.61548435     0.07000
C648        C  0.39413170  0.27168225  0.61732310    -0.27200
H649        H  0.43566799  0.33203918  0.72354653     0.11700
H650        H  0.40661880  0.32737276  0.79217925     0.12900
H651        H  0.34348595  0.24197356  0.62998062     0.11900
H652        H  0.31333364  0.23829685  0.69794071     0.11200
H653        H  0.30608188  0.24951612  0.77520608     0.16600
H654        H  0.36637864  0.30563794  0.83549426     0.12500
H655        H  0.44654888  0.31745212  0.64891852     0.15300
H656        H  0.38951017  0.25873946  0.59039010     0.15100
C657        C  0.38509588  0.31824834  0.30340514    -0.17800
C658        C  0.36739650  0.31593533  0.26507606    -0.19900
C659        C  0.35697516  0.29191342  0.25084964     0.20700
C660        C  0.36366280  0.27005795  0.27611395    -0.02900
C661        C  0.38167328  0.27236211  0.31463180    -0.05900
C662        C  0.39277121  0.29655924  0.32797421     0.21000
C663        C  0.38923729  0.25039467  0.33915730     0.19200
C664        C  0.37805978  0.22646610  0.32559684    -0.17400
C665        C  0.35989614  0.22422423  0.28764397    -0.19600
C666        C  0.35282990  0.24585471  0.26250224     0.20600
C667        C  0.33538205  0.24370151  0.22377657    -0.32600
C668        C  0.32929340  0.26532893  0.19798319     0.01300
C669        C  0.34016440  0.28935031  0.21166879    -0.24000
C670        C  0.41217687  0.29850837  0.36483652    -0.28500
C671        C  0.42062269  0.27659525  0.38823239     0.07000
C672        C  0.40860028  0.25269275  0.37604007    -0.27200
H673        H  0.39327123  0.33695401  0.31340921     0.11700
H674        H  0.36216278  0.33291236  0.24627588     0.12900
H675        H  0.38364533  0.20944753  0.34409416     0.11900
H676        H  0.35171057  0.20552022  0.27764430     0.11200
H677        H  0.32695248  0.22514011  0.21329617     0.16600
H678        H  0.33505260  0.30610049  0.19216959     0.12500
H679        H  0.42161982  0.31688307  0.37459407     0.15300
H680        H  0.41535009  0.23587051  0.39436816     0.15100
C681        C  0.15764438  0.25212308  0.64861599    -0.17800
C682        C  0.17668099  0.25364676  0.68584010    -0.19900
C683        C  0.16916214  0.23962289  0.72345382     0.20700
C684        C  0.14270194  0.22336724  0.72321425    -0.02900
C685        C  0.12363336  0.22167935  0.68555821    -0.05900
C686        C  0.13088893  0.23643885  0.64832071     0.21000
C687        C  0.09684319  0.20576738  0.68562488     0.19200
C688        C  0.08961082  0.19141695  0.72294606    -0.17400
C689        C  0.10847006  0.19314386  0.76029898    -0.19600
C690        C  0.13488657  0.20921998  0.76089012     0.20600
C691        C  0.15327676  0.21172886  0.79873712    -0.32600
C692        C  0.17931237  0.22833431  0.79958919     0.01300
C693        C  0.18731057  0.24194235  0.76153173    -0.24000
C694        C  0.11067808  0.23590572  0.61207390    -0.28500
C695        C  0.08346011  0.22070570  0.61259940     0.07000
C696        C  0.07718469  0.20513592  0.64891185    -0.27200
H697        H  0.16360476  0.26349166  0.62026390     0.11700
H698        H  0.19701655  0.26612408  0.68545163     0.12900
H699        H  0.06908043  0.17915121  0.72348122     0.11900
H700        H  0.10217613  0.18212854  0.78892091     0.11200
H701        H  0.14698843  0.20102821  0.82773007     0.16600
H702        H  0.20750144  0.25459122  0.76160404     0.12500
H703        H  0.11536835  0.24804078  0.58416738     0.15300
H704        H  0.05616437  0.19339051  0.64917350     0.15100
C705        C  0.17735779  0.24458405  0.30601148    -0.17800
C706        C  0.15921267  0.24482423  0.34428683    -0.19900
C707        C  0.12873373  0.23442358  0.34448536     0.20700
C708        C  0.11667775  0.22338300  0.30580830    -0.02900
C709        C  0.13466400  0.22364730  0.26703910    -0.05900
C710        C  0.16517313  0.23428318  0.26706679     0.21000
C711        C  0.12191044  0.21346747  0.22814444     0.19200
C712        C  0.09166992  0.20276858  0.22836570    -0.17400
C713        C  0.07415870  0.20203354  0.26688515    -0.19600
C714        C  0.08643257  0.21232496  0.30563274     0.20600
C715        C  0.06861524  0.21215410  0.34394502    -0.32600
C716        C  0.07946133  0.22439245  0.38203533     0.01300
C717        C  0.10979537  0.23530633  0.38222205    -0.24000
C718        C  0.18271391  0.23462778  0.22806044    -0.28500
C719        C  0.16985087  0.22480480  0.18895412     0.07000
C720        C  0.13944797  0.21423514  0.18953176    -0.27200
H721        H  0.20077353  0.25276640  0.30673135     0.11700
H722        H  0.16898003  0.25323367  0.37369394     0.12900
H723        H  0.08155960  0.19492725  0.19871843     0.11900
H724        H  0.05082849  0.19368265  0.26624876     0.11200
H725        H  0.04555675  0.20327210  0.34373948     0.16600
H726        H  0.11833638  0.24489103  0.41132077     0.12500
H727        H  0.20611771  0.24286376  0.22803621     0.15300
H728        H  0.12931407  0.20648724  0.15980845     0.15100
C729        C  0.88563799  0.09692460  0.06767872    -0.17800
C730        C  0.90758265  0.07704160  0.06913450    -0.19900
C731        C  0.92601753  0.07128178  0.03239842     0.20700
C732        C  0.92196103  0.08537856  0.99354590    -0.02900
C733        C  0.89941099  0.10510470  0.99183413    -0.05900
C734        C  0.88151577  0.11117975  0.02929343     0.21000
C735        C  0.89499584  0.11888672  0.95274541     0.19200
C736        C  0.91303515  0.11282109  0.91577253    -0.17400
C737        C  0.93561433  0.09346090  0.91760062    -0.19600
C738        C  0.94034103  0.07971214  0.95632934     0.20600
C739        C  0.96264033  0.06004984  0.95824034    -0.32600
C740        C  0.96627693  0.04568851  0.99654711     0.01300
C741        C  0.94804742  0.05140679  0.03353713    -0.24000
C742        C  0.86021493  0.13165048  0.02784578    -0.28500
C743        C  0.85612242  0.14573756  0.98913786     0.07000
C744        C  0.87307828  0.13883553  0.95150291    -0.27200
H745        H  0.87194970  0.10120576  0.09663008     0.11700
H746        H  0.91028499  0.06627419  0.09909968     0.12900
H747        H  0.90988431  0.12322717  0.88551937     0.11900
H748        H  0.94935387  0.08921166  0.88867955     0.11200
H749        H  0.97620635  0.05512949  0.92943037     0.16600
H750        H  0.95061187  0.03995340  0.06280430     0.12500
H751        H  0.84696092  0.13672572  0.05684381     0.15300
H752        H  0.87011412  0.14966444  0.92162375     0.15100
C753        C  0.08480586  0.11748606  0.06263076    -0.17800
C754        C  0.06417435  0.09664430  0.06208204    -0.19900
C755        C  0.06023880  0.08205390  0.02395843     0.20700
C756        C  0.07742927  0.08841447  0.98605809    -0.02900
C757        C  0.09814831  0.10950684  0.98657797    -0.05900
C758        C  0.10183713  0.12414699  0.02503301     0.21000
C759        C  0.11518867  0.11589289  0.94862845     0.19200
C760        C  0.11159826  0.10109901  0.91065324    -0.17400
C761        C  0.09130368  0.08008646  0.91024070    -0.19600
C762        C  0.07409899  0.07360363  0.94771294     0.20600
C763        C  0.05392274  0.05241130  0.94770156    -0.32600
C764        C  0.03671528  0.04607553  0.98529524     0.01300
C765        C  0.03977379  0.06102431  0.02320228    -0.24000
C766        C  0.12246208  0.14515796  0.02519564    -0.28500
C767        C  0.13944635  0.15176408  0.98733360     0.07000
C768        C  0.13556450  0.13693233  0.94922713    -0.27200
H769        H  0.08740101  0.12843439  0.09248561     0.11700
H770        H  0.05131362  0.09191329  0.09153407     0.12900
H771        H  0.12457139  0.10574548  0.88125499     0.11900
H772        H  0.08905754  0.06890403  0.88058243     0.11200
H773        H  0.05174438  0.04065199  0.91865802     0.16600
H774        H  0.02691047  0.05576699  0.05242293     0.12500
H775        H  0.12519403  0.15637984  0.05474607     0.15300
H776        H  0.14846688  0.14170811  0.91981551     0.15100
C777        C  0.08781230  0.91682666  0.90653825    -0.17800
C778        C  0.10840383  0.89601505  0.90641956    -0.19900
C779        C  0.11368466  0.88200383  0.94478600     0.20700
C780        C  0.09814227  0.88906312  0.98369837    -0.02900
C781        C  0.07716482  0.90990817  0.98374327    -0.05900
C782        C  0.07208400  0.92390151  0.94497900     0.21000
C783        C  0.06146652  0.91684982  0.02264280     0.19200
C784        C  0.06711215  0.90310515  0.06114342    -0.17400
C785        C  0.08802913  0.88252732  0.06113325    -0.19600
C786        C  0.10350479  0.87528503  0.02256772     0.20600
C787        C  0.12399931  0.85435130  0.02215219    -0.32600
C788        C  0.13909703  0.84680902  0.98330565     0.01300
C789        C  0.13402205  0.86093859  0.94482987    -0.24000
C790        C  0.05179473  0.94497331  0.94559207    -0.28500
C791        C  0.03632896  0.95195773  0.98428321     0.07000
C792        C  0.04087106  0.93770832  0.02251774    -0.27200
H793        H  0.08420001  0.92740204  0.87655774     0.11700
H794        H  0.12020165  0.89086875  0.87629267     0.12900
H795        H  0.05540478  0.90831407  0.09130716     0.11900
H796        H  0.09198678  0.87218599  0.09127075     0.11200
H797        H  0.12782810  0.84372552  0.05204758     0.16600
H798        H  0.14567335  0.85543818  0.91475705     0.12500
H799        H  0.04830236  0.95620801  0.91626325     0.15300
H800        H  0.02916930  0.94346050  0.05243612     0.15100
C801        C  0.93597201  0.90383123  0.91857166    -0.17800
C802        C  0.91316555  0.88464602  0.91680912    -0.19900
C803        C  0.89513735  0.87881891  0.95385012     0.20700
C804        C  0.90007620  0.89240666  0.99311206    -0.02900
C805        C  0.92281879  0.91196712  0.99474630    -0.05900
C806        C  0.94088154  0.91764558  0.95727747     0.21000
C807        C  0.92717425  0.92605775  0.03364435     0.19200
C808        C  0.90921374  0.92014383  0.07073465    -0.17400
C809        C  0.88707509  0.90040099  0.06935085    -0.19600
C810        C  0.88229466  0.88647125  0.03069992     0.20600
C811        C  0.86026408  0.86657488  0.02903009    -0.32600
C812        C  0.85541207  0.85288979  0.99003657     0.01300
C813        C  0.87255312  0.85940572  0.95242893    -0.24000
C814        C  0.96289286  0.93751833  0.95881546    -0.28500
C815        C  0.96651314  0.95210414  0.99695758     0.07000
C816        C  0.94887408  0.94619208  0.03437491    -0.27200
H817        H  0.94957941  0.90802781  0.88953084     0.11700
H818        H  0.90968818  0.87430545  0.88648746     0.12900
H819        H  0.91227618  0.93080507  0.10081121     0.11900
H820        H  0.87358753  0.89610190  0.09845792     0.11200
H821        H  0.84695564  0.86169334  0.05805535     0.16600
H822        H  0.86907493  0.84878082  0.92236690     0.12500
H823        H  0.97615010  0.94248681  0.92978202     0.15300
H824        H  0.95157907  0.95771416  0.06361014     0.15100
C825        C  0.59713488  0.39421744  0.08108301    -0.17800
C826        C  0.57634746  0.41478130  0.07654162    -0.19900
C827        C  0.56902147  0.42447973  0.03503463     0.20700
C828        C  0.58318015  0.41359881  0.99770432    -0.02900
C829        C  0.60397033  0.39263662  0.00228056    -0.05900
C830        C  0.61087986  0.38282678  0.04417770     0.21000
C831        C  0.61753889  0.38134432  0.96493167     0.19200
C832        C  0.61087088  0.39150333  0.92347380    -0.17400
C833        C  0.59064685  0.41246979  0.91898612    -0.19600
C834        C  0.57644227  0.42355858  0.95583343     0.20600
C835        C  0.55564271  0.44437045  0.95167458    -0.32600
C836        C  0.54096365  0.45486524  0.98877871     0.01300
C837        C  0.54783449  0.44486619  0.03026205    -0.24000
C838        C  0.63099196  0.36159355  0.04841285    -0.28500
C839        C  0.64391519  0.34967219  0.01121687     0.07000
C840        C  0.63719992  0.35992150  0.96960673    -0.27200
H841        H  0.60220325  0.38703720  0.11351183     0.11700
H842        H  0.56587344  0.42304505  0.10556383     0.12900
H843        H  0.62120417  0.38314621  0.89442895     0.11900
H844        H  0.58588068  0.41986157  0.88660732     0.11200
H845        H  0.55069481  0.45233561  0.91972864     0.16600
H846        H  0.53699197  0.45331590  0.05889905     0.12500
H847        H  0.63590129  0.35394839  0.08059435     0.15300
H848        H  0.64719661  0.35114250  0.94067951     0.15100
C849        C  0.38925527  0.40292092  0.07446099    -0.17800
C850        C  0.40975128  0.42379835  0.07268777    -0.19900
C851        C  0.43041638  0.42680063  0.03731995     0.20700
C852        C  0.43064400  0.40844374  0.00353709    -0.02900
C853        C  0.40974048  0.38740232  0.00519046    -0.05900
C854        C  0.38897405  0.38465845  0.04085880     0.21000
C855        C  0.40943260  0.36927703  0.97104308     0.19200
C856        C  0.43033832  0.37220596  0.93583035    -0.17400
C857        C  0.45111800  0.39299265  0.93426764    -0.19600
C858        C  0.45133693  0.41134137  0.96778869     0.20600
C859        C  0.47114588  0.43288915  0.96562703    -0.32600
C860        C  0.47026149  0.45168900  0.99856583     0.01300
C861        C  0.45022007  0.44819125  0.03464606    -0.24000
C862        C  0.36826673  0.36375086  0.04239677    -0.28500
C863        C  0.36765212  0.34551769  0.00854176     0.07000
C864        C  0.38827669  0.34857830  0.97276407    -0.27200
H865        H  0.37347007  0.40113396  0.10207258     0.11700
H866        H  0.40926165  0.43772987  0.09888113     0.12900
H867        H  0.43053896  0.35845267  0.90935390     0.11900
H868        H  0.46680935  0.39485569  0.90656654     0.11200
H869        H  0.48619665  0.43561732  0.93744515     0.16600
H870        H  0.44950500  0.46256334  0.06016192     0.12500
H871        H  0.35246157  0.36176498  0.06996630     0.15300
H872        H  0.38817773  0.33467387  0.94649746     0.15100
C873        C  0.38910956  0.59655744  0.08297413    -0.17800
C874        C  0.41002587  0.57594618  0.07960560    -0.19900
C875        C  0.42660720  0.57139707  0.04064998     0.20700
C876        C  0.42164793  0.58760526  0.00452429    -0.02900
C877        C  0.40030305  0.60830006  0.00782373    -0.05900
C878        C  0.38421688  0.61299628  0.04740009     0.21000
C879        C  0.39528367  0.62438597  0.97160613     0.19200
C880        C  0.41122302  0.61947189  0.93228877    -0.17400
C881        C  0.43241086  0.59909610  0.92908209    -0.19600
C882        C  0.43800445  0.58315737  0.96506478     0.20600
C883        C  0.45939220  0.56272643  0.96210088    -0.32600
C884        C  0.46450386  0.54647942  0.99790216     0.01300
C885        C  0.44785212  0.55086188  0.03702116    -0.24000
C886        C  0.36386021  0.63416905  0.05084811    -0.28500
C887        C  0.35921881  0.65071352  0.01511466     0.07000
C888        C  0.37476802  0.64530281  0.97540314    -0.27200
H889        H  0.37687042  0.59971885  0.11355183     0.11700
H890        H  0.41337740  0.56363290  0.10762432     0.12900
H891        H  0.40751750  0.63155479  0.90405474     0.11900
H892        H  0.44453320  0.59586185  0.89843598     0.11200
H893        H  0.47139098  0.55896933  0.93153273     0.16600
H894        H  0.45133009  0.53811868  0.06447294     0.12500
H895        H  0.35186758  0.63786367  0.08145232     0.15300
H896        H  0.37135777  0.65764774  0.94741536     0.15100
C897        C  0.60714717  0.60147251  0.07349947    -0.17800
C898        C  0.58663703  0.58067221  0.07032559    -0.19900
C899        C  0.57104317  0.57530726  0.03092885     0.20700
C900        C  0.57640309  0.59088902  0.99412668    -0.02900
C901        C  0.59716998  0.61193721  0.99735522    -0.05900
C902        C  0.61243166  0.61732388  0.03734848     0.21000
C903        C  0.60255362  0.62760621  0.96070858     0.19200
C904        C  0.58738598  0.62191518  0.92101468    -0.17400
C905        C  0.56692580  0.60098359  0.91774737    -0.19600
C906        C  0.56116586  0.58535980  0.95412964     0.20600
C907        C  0.54087717  0.56411739  0.95120850    -0.32600
C908        C  0.53545295  0.54864854  0.98797043     0.01300
C909        C  0.55053510  0.55441665  0.02761171    -0.24000
C910        C  0.63245969  0.63857892  0.04074309    -0.28500
C911        C  0.63756610  0.65467811  0.00469673     0.07000
C912        C  0.62274184  0.64879526  0.96455284    -0.27200
H913        H  0.61876915  0.60524341  0.10437558     0.11700
H914        H  0.58293188  0.56877512  0.09877880     0.12900
H915        H  0.59128411  0.63370748  0.89247558     0.11900
H916        H  0.55556392  0.59703947  0.88674772     0.11200
H917        H  0.52986883  0.55928926  0.92031824     0.16600
H918        H  0.54681348  0.54215012  0.05564267     0.12500
H919        H  0.64385240  0.64269785  0.07167060     0.09700
H920        H  0.62652780  0.66090247  0.93635874     0.15100
loop_ 
_geom_bond_atom_site_label_1 
_geom_bond_atom_site_label_2 
_geom_bond_distance 
_geom_bond_site_symmetry_2 
_ccdc_geom_bond_type 
C1            C2   1.417       .  A
C1            C6   1.407       .  A
C1          C884   1.493       .  S
C2            C3   1.409       .  A
C2          C908   1.484       .  S
C3            C4   1.407       .  A
C3            H8   1.085       .  S
C4            C5   1.417       .  A
C4          C836   1.487       .  S
C5            C6   1.410       .  A
C5          C860   1.493       .  S
C6            H7   1.084   1_556  S
C9           C10   1.410   1_655  A
C9           C14   1.398   1_556  A
C9          C815   1.475       .  S
C10          C11   1.402       .  A
C10         C791   1.474       .  S
C11          C12   1.402   1_565  A
C11          H16   1.085       .  S
C12          C13   1.412   1_455  A
C12         C764   1.479       .  S
C13          C14   1.400   1_546  A
C13         C740   1.475       .  S
C14          H15   1.085       .  S
O17         Mg19   2.135   1_554  S
O17         Mg25   2.161       .  S
O17          C52   1.238       .  S
C18          H57   1.081       .  S
C18          O31   1.238       .  S
C18          O55   1.272       .  A
Mg19         O48   2.149       .  S
Mg19         O63   2.324       .  S
Mg19         O59   2.250       .  S
Mg19         O30   2.309       .  S
O20         Mg62   2.142       .  S
O20         Mg45   2.135       .  S
O20          C41   1.235       .  S
O21          C52   1.271       .  A
O21         Mg45   2.295       .  S
C22         C692   1.483       .  S
C22          O24   1.271       .  A
C22          O36   1.275       .  A
O23          C51   1.269   1_554  A
O23         Mg25   2.298       .  S
O24         Mg56   2.257       .  S
Mg25         O31   2.151       .  S
Mg25         O39   2.292       .  S
Mg25         O27   2.310       .  S
C26         C767   1.489       .  S
C26          O64   1.274       .  A
C26          O32   1.280   1_556  A
O27          C34   1.277       .  A
H28          C41   1.081       .  S
C29          H54   1.081       .  S
C29          O43   1.236       .  S
C29          O44   1.269       .  A
O30          C53   1.272       .  A
O31         Mg45   2.157       .  S
O32         Mg62   2.336       .  S
C33         C719   1.485       .  S
C33          O46   1.274       .  A
C33          O38   1.275       .  A
C34         C668   1.474       .  S
C34          O61   1.270       .  A
Mg35         O42   2.148       .  S
Mg35         O43   2.152       .  S
Mg35         O36   2.305       .  S
Mg35         O37   2.291       .  S
Mg35         O64   2.259       .  S
O37          C41   1.268   1_556  A
O38         Mg45   2.310       .  S
O39          C58   1.277       .  A
O40          C60   1.272       .  A
O40         Mg56   2.285       .  S
O42         Mg56   2.151       .  S
O42          C53   1.237       .  S
O43         Mg62   2.133   1_556  S
O44         Mg56   2.293       .  S
Mg45         O61   2.244       .  S
O46         Mg62   2.264       .  S
H47          C52   1.081       .  S
O48         Mg56   2.148       .  S
O48          C51   1.235       .  S
H49          C51   1.081       .  S
H50          C53   1.081       .  S
O55         Mg62   2.303       .  S
C58         C863   1.494       .  S
C58          O63   1.277   1_554  A
O59          C60   1.271       .  A
C60         C644   1.472       .  S
O65         Mg67   2.132   1_556  S
O65         Mg73   2.142       .  S
O65         C100   1.237       .  S
C66         H105   1.081       .  S
C66          O79   1.238       .  S
C66         O103   1.273       .  A
Mg67         O96   2.139       .  S
Mg67        O111   2.318       .  S
Mg67        O107   2.271       .  S
Mg67         O78   2.307       .  S
O68        Mg110   2.139       .  S
O68         Mg93   2.135       .  S
O68          C89   1.236       .  S
O69         C100   1.271       .  A
O69         Mg93   2.297       .  S
C70         C551   1.482       .  S
C70          O72   1.271       .  A
C70          O84   1.277       .  A
O71          C99   1.271   1_556  A
O71         Mg73   2.304       .  S
O72        Mg104   2.251       .  S
Mg73         O79   2.147       .  S
Mg73         O87   2.266       .  S
Mg73         O75   2.322       .  S
C74         C839   1.495       .  S
C74         O112   1.278       .  A
C74          O80   1.277   1_554  A
O75          C82   1.277       .  A
H76          C89   1.081       .  S
C77         H102   1.081       .  S
C77          O91   1.238       .  S
C77          O92   1.271       .  A
O78         C101   1.273       .  A
O79         Mg93   2.148       .  S
O80        Mg110   2.318       .  S
C81         C575   1.480       .  S
C81          O94   1.272       .  A
C81          O86   1.275       .  A
C82         C623   1.485       .  S
C82         O109   1.271       .  A
Mg83         O90   2.162       .  S
Mg83         O91   2.152       .  S
Mg83         O84   2.309       .  S
Mg83         O85   2.297       .  S
Mg83        O112   2.310       .  S
O85          C89   1.270   1_554  A
O86         Mg93   2.305       .  S
O87         C106   1.274       .  A
O88         C108   1.276       .  A
O88        Mg104   2.309       .  S
O90        Mg104   2.158       .  S
O90         C101   1.238       .  S
O91        Mg110   2.132   1_554  S
O92        Mg104   2.296       .  S
Mg93        O109   2.249       .  S
O94        Mg110   2.262       .  S
H95         C100   1.081       .  S
O96        Mg104   2.137       .  S
O96          C99   1.237       .  S
H97          C99   1.081       .  S
H98         C101   1.081       .  S
O103       Mg110   2.305       .  S
C106        C743   1.480       .  S
C106        O111   1.277   1_556  A
O107        C108   1.272       .  A
C108        C599   1.486       .  S
O113       Mg115   2.143   1_554  S
O113       Mg121   2.157       .  S
O113        C148   1.238       .  S
C114        H153   1.081       .  S
C114        O127   1.237       .  S
C114        O151   1.272       .  A
Mg115       O144   2.145       .  S
Mg115       O159   2.299       .  S
Mg115       O155   2.267       .  S
Mg115       O126   2.295       .  S
O116       Mg158   2.136       .  S
O116       Mg141   2.132       .  S
O116        C137   1.237       .  S
O117        C148   1.272       .  A
O117       Mg141   2.303       .  S
C118        C503   1.479       .  S
C118        O120   1.268       .  A
C118        O132   1.276       .  A
O119        C147   1.268   1_554  A
O119       Mg121   2.290       .  S
O120       Mg152   2.226       .  S
Mg121       O127   2.155       .  S
Mg121       O135   2.301       .  S
Mg121       O123   2.311       .  S
C122        C812   1.474       .  S
C122        O160   1.272       .  A
C122        O128   1.275   1_556  A
O123        C130   1.278       .  A
H124        C137   1.081       .  S
C125        H150   1.081       .  S
C125        O139   1.236       .  S
C125        O140   1.269       .  A
O126        C149   1.270       .  A
O127       Mg141   2.148       .  S
O128       Mg158   2.301       .  S
C129        C524   1.485       .  S
C129        O142   1.272       .  A
C129        O134   1.278       .  A
C130        C479   1.477       .  S
C130        O157   1.271       .  A
Mg131       O138   2.132       .  S
Mg131       O139   2.148       .  S
Mg131       O132   2.311       .  S
Mg131       O133   2.301       .  S
Mg131       O160   2.249       .  S
O133        C137   1.271   1_556  A
O134       Mg141   2.329       .  S
O135        C154   1.278       .  A
O136        C156   1.272       .  A
O136       Mg152   2.289       .  S
O138       Mg152   2.154       .  S
O138        C149   1.236       .  S
O139       Mg158   2.134   1_556  S
O140       Mg152   2.292       .  S
Mg141       O157   2.242       .  S
O142       Mg158   2.265       .  S
H143        C148   1.081       .  S
O144       Mg152   2.126       .  S
O144        C147   1.235       .  S
H145        C147   1.081       .  S
H146        C149   1.081       .  S
O151       Mg158   2.306       .  S
C154        C911   1.492       .  S
C154        O159   1.275   1_554  A
O155        C156   1.273       .  A
C156        C455   1.479       .  S
O161       Mg163   2.142   1_556  S
O161       Mg169   2.154       .  S
O161        C196   1.237       .  S
C162        H201   1.081       .  S
C162        O175   1.238       .  S
C162        O199   1.272       .  A
Mg163       O192   2.149       .  S
Mg163       O207   2.308       .  S
Mg163       O203   2.271       .  S
Mg163       O174   2.303       .  S
O164       Mg206   2.146       .  S
O164       Mg189   2.145       .  S
O164        C185   1.236       .  S
O165        C196   1.271       .  A
O165       Mg189   2.297       .  S
C166        C359   1.488       .  S
C166        O168   1.272       .  A
C166        O180   1.281       .  A
O167        C195   1.270   1_556  A
O167       Mg169   2.299       .  S
O168       Mg200   2.261       .  S
Mg169       O175   2.126       .  S
Mg169       O183   2.257       .  S
Mg169       O171   2.312       .  S
C170        C887   1.497       .  S
C170        O208   1.279       .  A
C170        O176   1.277   1_554  A
O171        C178   1.277       .  A
H172        C185   1.081       .  S
C173        H198   1.081       .  S
C173        O187   1.237       .  S
C173        O188   1.271       .  A
O174        C197   1.272       .  A
O175       Mg189   2.145       .  S
O176       Mg206   2.308       .  S
C177        C380   1.470       .  S
C177        O190   1.272       .  A
C177        O182   1.273       .  A
C178        C428   1.489       .  S
C178        O205   1.272       .  A
Mg179       O186   2.152       .  S
Mg179       O187   2.158       .  S
Mg179       O180   2.332       .  S
Mg179       O181   2.298       .  S
Mg179       O208   2.314       .  S
O181        C185   1.270   1_554  A
O182       Mg189   2.288       .  S
O183        C202   1.272       .  A
O184        C204   1.275       .  A
O184       Mg200   2.301       .  S
O186       Mg200   2.154       .  S
O186        C197   1.237       .  S
O187       Mg206   2.142   1_554  S
O188       Mg200   2.296       .  S
Mg189       O205   2.276       .  S
O190       Mg206   2.266       .  S
H191        C196   1.081       .  S
O192       Mg200   2.144       .  S
O192        C195   1.236       .  S
H193        C195   1.081       .  S
H194        C197   1.081       .  S
O199       Mg206   2.302       .  S
C202        C788   1.482       .  S
C202        O207   1.276   1_556  A
O203        C204   1.273       .  A
C204        C407   1.484       .  S
N209        C214   1.351   1_455  A
N209        C213   1.353       .  A
N209        H241   1.042       .  S
N210        C217   1.350       .  A
N210        C218   1.347       .  A
N211        C216   1.353   1_455  A
N211        C215   1.352       .  A
N211        H242   1.041       .  S
N212        C219   1.351       .  A
N212        C220   1.350       .  A
C213        C221   1.388       .  A
C213        C229   1.416       .  A
C214        C230   1.412       .  A
C214        C222   1.386       .  A
C215        C223   1.387       .  A
C215        C232   1.414       .  A
C216        C231   1.414       .  A
C216        C224   1.387       .  A
C217        C229   1.411       .  A
C217        C225   1.386       .  A
C218        C232   1.409       .  A
C218        C226   1.386       .  A
C219        C227   1.387       .  A
C219        C230   1.415       .  A
C220        C228   1.386       .  A
C220        C231   1.413       .  A
C221        C222   1.374   1_455  A
C221        H233   1.082       .  S
C222        H234   1.082       .  S
C223        C224   1.374   1_455  A
C223        H235   1.082       .  S
C224        H236   1.082       .  S
C225        C226   1.378       .  A
C225        H237   1.082       .  S
C226        H238   1.082       .  S
C227        C228   1.380       .  A
C227        H239   1.082       .  S
C228        H240   1.082       .  S
C229        C716   1.496       .  S
C230        C596   1.493       .  S
C231        C620   1.489       .  S
C232        C695   1.485       .  S
N243        C248   1.353       .  A
N243        C247   1.355   1_655  A
N243        H275   1.040       .  S
N244        C251   1.348       .  A
N244        C252   1.350       .  A
N245        C250   1.351       .  A
N245        C249   1.350   1_655  A
N245        H276   1.042       .  S
N246        C253   1.347       .  A
N246        C254   1.351       .  A
C247        C255   1.387       .  A
C247        C263   1.417       .  A
C248        C264   1.417       .  A
C248        C256   1.388       .  A
C249        C257   1.388       .  A
C249        C266   1.413       .  A
C250        C265   1.408       .  A
C250        C258   1.385       .  A
C251        C263   1.408       .  A
C251        C259   1.385       .  A
C252        C266   1.412       .  A
C252        C260   1.387       .  A
C253        C261   1.387       .  A
C253        C264   1.410       .  A
C254        C262   1.385       .  A
C254        C265   1.409       .  A
C255        C256   1.375   1_455  A
C255        H267   1.082       .  S
C256        H268   1.082       .  S
C257        C258   1.374   1_455  A
C257        H269   1.082       .  S
C258        H270   1.082       .  S
C259        C260   1.377       .  A
C259        H271   1.082       .  S
C260        H272   1.081       .  S
C261        C262   1.377       .  A
C261        H273   1.082       .  S
C262        H274   1.082       .  S
C263        C431   1.488       .  S
C264        C500   1.481       .  S
C265        C527   1.488       .  S
C266        C404   1.492       .  S
N277        C282   1.354       .  A
N277        C281   1.351       .  A
N277        H309   1.043       .  S
N278        C285   1.347       .  A
N278        C286   1.351       .  A
N279        C284   1.352       .  A
N279        C283   1.354       .  A
N279        H310   1.043       .  S
N280        C287   1.352       .  A
N280        C288   1.348       .  A
C281        C289   1.389       .  A
C281        C297   1.414       .  A
C282        C298   1.414       .  A
C282        C290   1.386       .  A
C283        C291   1.387       .  A
C283        C300   1.417       .  A
C284        C299   1.414       .  A
C284        C292   1.387       .  A
C285        C297   1.409       .  A
C285        C293   1.387       .  A
C286        C300   1.409       .  A
C286        C294   1.385       .  A
C287        C295   1.385       .  A
C287        C298   1.410       .  A
C288        C296   1.387       .  A
C288        C299   1.411       .  A
C289        C290   1.373       .  A
C289        H301   1.082       .  S
C290        H302   1.083       .  S
C291        C292   1.373       .  A
C291        H303   1.082       .  S
C292        H304   1.082       .  S
C293        C294   1.376       .  A
C293        H305   1.082       .  S
C294        H306   1.082       .  S
C295        C296   1.375       .  A
C295        H307   1.082       .  S
C296        H308   1.082       .  S
C297        C476   1.474       .  S
C298        C356   1.489       .  S
C299        C383   1.480       .  S
C300        C452   1.493       .  S
N311        C316   1.352       .  A
N311        C315   1.352       .  A
N311        H343   1.042       .  S
N312        C319   1.347       .  A
N312        C320   1.347       .  A
N313        C318   1.352       .  A
N313        C317   1.354       .  A
N313        H344   1.040       .  S
N314        C321   1.349       .  A
N314        C322   1.348       .  A
C315        C323   1.386       .  A
C315        C331   1.411       .  A
C316        C332   1.413       .  A
C316        C324   1.387       .  A
C317        C325   1.387       .  A
C317        C334   1.414       .  A
C318        C333   1.414       .  A
C318        C326   1.387       .  A
C319        C331   1.406       .  A
C319        C327   1.386       .  A
C320        C334   1.406       .  A
C320        C328   1.386       .  A
C321        C329   1.386       .  A
C321        C332   1.410       .  A
C322        C330   1.386       .  A
C322        C333   1.410       .  A
C323        C324   1.371       .  A
C323        H335   1.082       .  S
C324        H336   1.082       .  S
C325        C326   1.373       .  A
C325        H337   1.082       .  S
C326        H338   1.082       .  S
C327        C328   1.375       .  A
C327        H339   1.082       .  S
C328        H340   1.082       .  S
C329        C330   1.379       .  A
C329        H341   1.082       .  S
C330        H342   1.082       .  S
C331        C647   1.482       .  S
C332        C572   1.488       .  S
C333        C548   1.481       .  S
C334        C671   1.477       .  S
C345        C346   1.397       .  A
C345        C350   1.402       .  A
C345        H361   1.084       .  S
C346        C347   1.402       .  A
C346        H362   1.084       .  S
C347        C357   1.400       .  A
C347        C348   1.411       .  A
C348        C354   1.413       .  A
C348        C349   1.414       .  A
C349        C351   1.410       .  A
C349        C350   1.412       .  A
C350        C358   1.402       .  A
C351        C360   1.408       .  A
C351        C352   1.406       .  A
C352        C353   1.402       .  A
C352        H363   1.084       .  S
C353        C354   1.405       .  A
C353        H364   1.084       .  S
C354        C355   1.409       .  A
C355        C356   1.407       .  A
C355        H365   1.084       .  S
C356        C357   1.404       .  A
C357        H366   1.085       .  S
C358        C359   1.406       .  A
C358        H367   1.084       .  S
C359        C360   1.413       .  A
C360        H368   1.084       .  S
C369        C370   1.397       .  A
C369        C374   1.403       .  A
C369        H385   1.084       .  S
C370        C371   1.403       .  A
C370        H386   1.084       .  S
C371        C381   1.400       .  A
C371        C372   1.412       .  A
C372        C378   1.411       .  A
C372        C373   1.409       .  A
C373        C375   1.413       .  A
C373        C374   1.411       .  A
C374        C382   1.398       .  A
C375        C384   1.401       .  A
C375        C376   1.403       .  A
C376        C377   1.398       .  A
C376        H387   1.084       .  S
C377        C378   1.404       .  A
C377        H388   1.084       .  S
C378        C379   1.401       .  A
C379        C380   1.405       .  A
C379        H389   1.085       .  S
C380        C381   1.403       .  A
C381        H390   1.085       .  S
C382        C383   1.403       .  A
C382        H391   1.085       .  S
C383        C384   1.403       .  A
C384        H392   1.084       .  S
C393        C394   1.400       .  A
C393        C398   1.404       .  A
C393        H409   1.084       .  S
C394        C395   1.403       .  A
C394        H410   1.084       .  S
C395        C405   1.405       .  A
C395        C396   1.413       .  A
C396        C402   1.409       .  A
C396        C397   1.411       .  A
C397        C399   1.412       .  A
C397        C398   1.410       .  A
C398        C406   1.403       .  A
C399        C408   1.402       .  A
C399        C400   1.403       .  A
C400        C401   1.397       .  A
C400        H411   1.084       .  S
C401        C402   1.403       .  A
C401        H412   1.084       .  S
C402        C403   1.397       .  A
C403        C404   1.408       .  A
C403        H413   1.085       .  S
C404        C405   1.406       .  A
C405        H414   1.084       .  S
C406        C407   1.409       .  A
C406        H415   1.084       .  S
C407        C408   1.407       .  A
C408        H416   1.084       .  S
C417        C418   1.402       .  A
C417        C422   1.404       .  A
C417        H433   1.084       .  S
C418        C419   1.405       .  A
C418        H434   1.083       .  S
C419        C429   1.408       .  A
C419        C420   1.412       .  A
C420        C426   1.410       .  A
C420        C421   1.413       .  A
C421        C423   1.412       .  A
C421        C422   1.412       .  A
C422        C430   1.406       .  A
C423        C432   1.401       .  A
C423        C424   1.402       .  A
C424        C425   1.397       .  A
C424        H435   1.084       .  S
C425        C426   1.403       .  A
C425        H436   1.084       .  S
C426        C427   1.401       .  A
C427        C428   1.408       .  A
C427        H437   1.084       .  S
C428        C429   1.411       .  A
C429        H438   1.084       .  S
C430        C431   1.407       .  A
C430        H439   1.084       .  S
C431        C432   1.403       .  A
C432        H440   1.084       .  S
C441        C442   1.402       .  A
C441        C446   1.405       .  A
C441        H457   1.084       .  S
C442        C443   1.405       .  A
C442        H458   1.083       .  S
C443        C453   1.407       .  A
C443        C444   1.412       .  A
C444        C450   1.411       .  A
C444        C445   1.412       .  A
C445        C447   1.412       .  A
C445        C446   1.411       .  A
C446        C454   1.406       .  A
C447        C456   1.399       .  A
C447        C448   1.402       .  A
C448        C449   1.396       .  A
C448        H459   1.084       .  S
C449        C450   1.402       .  A
C449        H460   1.084       .  S
C450        C451   1.399       .  A
C451        C452   1.406       .  A
C451        H461   1.085       .  S
C452        C453   1.408       .  A
C453        H462   1.084       .  S
C454        C455   1.410       .  A
C454        H463   1.084       .  S
C455        C456   1.404       .  A
C456        H464   1.084       .  S
C465        C466   1.397       .  A
C465        C470   1.403       .  A
C465        H481   1.084       .  S
C466        C467   1.402       .  A
C466        H482   1.084       .  S
C467        C477   1.398       .  A
C467        C468   1.412       .  A
C468        C474   1.413       .  A
C468        C469   1.409       .  A
C469        C471   1.411       .  A
C469        C470   1.412       .  A
C470        C478   1.400       .  A
C471        C480   1.400       .  A
C471        C472   1.404       .  A
C472        C473   1.398       .  A
C472        H483   1.084       .  S
C473        C474   1.403       .  A
C473        H484   1.084       .  S
C474        C475   1.400       .  A
C475        C476   1.402       .  A
C475        H485   1.084       .  S
C476        C477   1.401       .  A
C477        H486   1.085       .  S
C478        C479   1.405       .  A
C478        H487   1.084       .  S
C479        C480   1.408       .  A
C480        H488   1.084       .  S
C489        C490   1.398       .  A
C489        C494   1.404       .  A
C489        H505   1.084       .  S
C490        C491   1.403       .  A
C490        H506   1.084       .  S
C491        C501   1.401       .  A
C491        C492   1.413       .  A
C492        C498   1.411       .  A
C492        C493   1.409       .  A
C493        C495   1.412       .  A
C493        C494   1.410       .  A
C494        C502   1.399       .  A
C495        C504   1.402       .  A
C495        C496   1.403       .  A
C496        C497   1.398       .  A
C496        H507   1.084       .  S
C497        C498   1.403       .  A
C497        H508   1.084       .  S
C498        C499   1.399       .  A
C499        C500   1.404       .  A
C499        H509   1.084       .  S
C500        C501   1.403       .  A
C501        H510   1.084       .  S
C502        C503   1.409       .  A
C502        H511   1.084       .  S
C503        C504   1.406       .  A
C504        H512   1.084       .  S
C513        C514   1.400       .  A
C513        C518   1.403       .  A
C513        H529   1.083       .  S
C514        C515   1.404       .  A
C514        H530   1.083       .  S
C515        C525   1.405       .  A
C515        C516   1.411       .  A
C516        C522   1.412       .  A
C516        C517   1.413       .  A
C517        C519   1.411       .  A
C517        C518   1.413       .  A
C518        C526   1.406       .  A
C519        C528   1.401       .  A
C519        C520   1.404       .  A
C520        C521   1.399       .  A
C520        H531   1.084       .  S
C521        C522   1.404       .  A
C521        H532   1.084       .  S
C522        C523   1.405       .  A
C523        C524   1.409       .  A
C523        H533   1.084       .  S
C524        C525   1.407       .  A
C525        H534   1.084       .  S
C526        C527   1.404       .  A
C526        H535   1.084       .  S
C527        C528   1.407       .  A
C528        H536   1.085       .  S
C537        C538   1.400       .  A
C537        C542   1.404       .  A
C537        H553   1.084       .  S
C538        C539   1.403       .  A
C538        H554   1.084       .  S
C539        C549   1.404       .  A
C539        C540   1.413       .  A
C540        C546   1.411       .  A
C540        C541   1.411       .  A
C541        C543   1.412       .  A
C541        C542   1.411       .  A
C542        C550   1.403       .  A
C543        C552   1.400       .  A
C543        C544   1.403       .  A
C544        C545   1.397       .  A
C544        H555   1.084       .  S
C545        C546   1.402       .  A
C545        H556   1.084       .  S
C546        C547   1.399       .  A
C547        C548   1.403       .  A
C547        H557   1.085       .  S
C548        C549   1.404       .  A
C549        H558   1.084       .  S
C550        C551   1.410       .  A
C550        H559   1.084       .  S
C551        C552   1.406       .  A
C552        H560   1.084       .  S
C561        C562   1.397       .  A
C561        C566   1.403       .  A
C561        H577   1.084       .  S
C562        C563   1.403       .  A
C562        H578   1.084       .  S
C563        C573   1.398       .  A
C563        C564   1.410       .  A
C564        C570   1.413       .  A
C564        C565   1.411       .  A
C565        C567   1.411       .  A
C565        C566   1.412       .  A
C566        C574   1.401       .  A
C567        C576   1.404       .  A
C567        C568   1.404       .  A
C568        C569   1.400       .  A
C568        H579   1.084       .  S
C569        C570   1.403       .  A
C569        H580   1.084       .  S
C570        C571   1.405       .  A
C571        C572   1.405       .  A
C571        H581   1.084       .  S
C572        C573   1.406       .  A
C573        H582   1.085       .  S
C574        C575   1.406       .  A
C574        H583   1.084       .  S
C575        C576   1.408       .  A
C576        H584   1.084       .  S
C585        C586   1.399       .  A
C585        C590   1.404       .  A
C585        H601   1.083       .  S
C586        C587   1.403       .  A
C586        H602   1.083       .  S
C587        C597   1.405       .  A
C587        C588   1.413       .  A
C588        C594   1.410       .  A
C588        C589   1.413       .  A
C589        C591   1.412       .  A
C589        C590   1.410       .  A
C590        C598   1.402       .  A
C591        C600   1.406       .  A
C591        C592   1.404       .  A
C592        C593   1.400       .  A
C592        H603   1.084       .  S
C593        C594   1.404       .  A
C593        H604   1.084       .  S
C594        C595   1.402       .  A
C595        C596   1.410       .  A
C595        H605   1.085       .  S
C596        C597   1.405       .  A
C597        H606   1.084       .  S
C598        C599   1.408       .  A
C598        H607   1.084       .  S
C599        C600   1.409       .  A
C600        H608   1.084       .  S
C609        C610   1.399       .  A
C609        C614   1.404       .  A
C609        H625   1.084       .  S
C610        C611   1.403       .  A
C610        H626   1.083       .  S
C611        C621   1.405       .  A
C611        C612   1.414       .  A
C612        C618   1.410       .  A
C612        C613   1.413       .  A
C613        C615   1.413       .  A
C613        C614   1.409       .  A
C614        C622   1.401       .  A
C615        C624   1.406       .  A
C615        C616   1.404       .  A
C616        C617   1.400       .  A
C616        H627   1.084       .  S
C617        C618   1.404       .  A
C617        H628   1.084       .  S
C618        C619   1.403       .  A
C619        C620   1.407       .  A
C619        H629   1.084       .  S
C620        C621   1.404       .  A
C621        H630   1.084       .  S
C622        C623   1.409       .  A
C622        H631   1.084       .  S
C623        C624   1.408       .  A
C624        H632   1.084       .  S
C633        C634   1.396       .  A
C633        C638   1.402       .  A
C633        H649   1.084       .  S
C634        C635   1.402       .  A
C634        H650   1.084       .  S
C635        C645   1.398       .  A
C635        C636   1.412       .  A
C636        C642   1.411       .  A
C636        C637   1.408       .  A
C637        C639   1.412       .  A
C637        C638   1.411       .  A
C638        C646   1.397       .  A
C639        C648   1.401       .  A
C639        C640   1.403       .  A
C640        C641   1.398       .  A
C640        H651   1.084       .  S
C641        C642   1.403       .  A
C641        H652   1.084       .  S
C642        C643   1.400       .  A
C643        C644   1.406       .  A
C643        H653   1.084       .  S
C644        C645   1.405       .  A
C645        H654   1.084       .  S
C646        C647   1.404       .  A
C646        H655   1.085       .  S
C647        C648   1.404       .  A
C648        H656   1.084       .  S
C657        C658   1.398       .  A
C657        C662   1.402       .  A
C657        H673   1.084       .  S
C658        C659   1.403       .  A
C658        H674   1.084       .  S
C659        C669   1.401       .  A
C659        C660   1.412       .  A
C660        C666   1.411       .  A
C660        C661   1.410       .  A
C661        C663   1.413       .  A
C661        C662   1.412       .  A
C662        C670   1.400       .  A
C663        C672   1.401       .  A
C663        C664   1.403       .  A
C664        C665   1.399       .  A
C664        H675   1.084       .  S
C665        C666   1.404       .  A
C665        H676   1.084       .  S
C666        C667   1.402       .  A
C667        C668   1.406       .  A
C667        H677   1.084       .  S
C668        C669   1.404       .  A
C669        H678   1.084       .  S
C670        C671   1.401       .  A
C670        H679   1.084       .  S
C671        C672   1.403       .  A
C672        H680   1.084       .  S
C681        C682   1.399       .  A
C681        C686   1.403       .  A
C681        H697   1.084       .  S
C682        C683   1.404       .  A
C682        H698   1.084       .  S
C683        C693   1.402       .  A
C683        C684   1.410       .  A
C684        C690   1.412       .  A
C684        C685   1.411       .  A
C685        C687   1.411       .  A
C685        C686   1.413       .  A
C686        C694   1.402       .  A
C687        C696   1.400       .  A
C687        C688   1.403       .  A
C688        C689   1.398       .  A
C688        H699   1.084       .  S
C689        C690   1.403       .  A
C689        H700   1.084       .  S
C690        C691   1.402       .  A
C691        C692   1.408       .  A
C691        H701   1.084       .  S
C692        C693   1.409       .  A
C693        H702   1.084       .  S
C694        C695   1.404       .  A
C694        H703   1.084       .  S
C695        C696   1.406       .  A
C696        H704   1.085       .  S
C705        C706   1.403       .  A
C705        C710   1.406       .  A
C705        H721   1.084       .  S
C706        C707   1.405       .  A
C706        H722   1.083       .  S
C707        C717   1.409       .  A
C707        C708   1.412       .  A
C708        C714   1.410       .  A
C708        C709   1.412       .  A
C709        C711   1.411       .  A
C709        C710   1.411       .  A
C710        C718   1.408       .  A
C711        C720   1.398       .  A
C711        C712   1.402       .  A
C712        C713   1.395       .  A
C712        H723   1.084       .  S
C713        C714   1.402       .  A
C713        H724   1.084       .  S
C714        C715   1.396       .  A
C715        C716   1.407       .  A
C715        H725   1.085       .  S
C716        C717   1.410       .  A
C717        H726   1.084       .  S
C718        C719   1.411       .  A
C718        H727   1.084       .  S
C719        C720   1.406       .  A
C720        H728   1.084       .  S
C729        C730   1.399       .  A
C729        C734   1.404       .  A
C729        H745   1.083       .  S
C730        C731   1.403       .  A
C730        H746   1.084       .  S
C731        C741   1.401       .  A
C731        C732   1.411   1_554  A
C732        C738   1.413       .  A
C732        C733   1.411       .  A
C733        C735   1.411       .  A
C733        C734   1.412   1_556  A
C734        C742   1.405       .  A
C735        C744   1.401       .  A
C735        C736   1.403       .  A
C736        C737   1.398       .  A
C736        H747   1.084       .  S
C737        C738   1.402       .  A
C737        H748   1.084       .  S
C738        C739   1.402       .  A
C739        C740   1.403       .  A
C739        H749   1.085       .  S
C740        C741   1.404   1_556  A
C741        H750   1.085       .  S
C742        C743   1.408   1_554  A
C742        H751   1.084       .  S
C743        C744   1.406       .  A
C744        H752   1.084       .  S
C753        C754   1.400       .  A
C753        C758   1.404       .  A
C753        H769   1.083       .  S
C754        C755   1.404       .  A
C754        H770   1.084       .  S
C755        C765   1.404       .  A
C755        C756   1.412   1_554  A
C756        C762   1.413       .  A
C756        C757   1.413       .  A
C757        C759   1.410       .  A
C757        C758   1.412   1_556  A
C758        C766   1.407       .  A
C759        C768   1.402       .  A
C759        C760   1.404       .  A
C760        C761   1.399       .  A
C760        H771   1.084       .  S
C761        C762   1.403       .  A
C761        H772   1.084       .  S
C762        C763   1.403       .  A
C763        C764   1.404       .  A
C763        H773   1.084       .  S
C764        C765   1.404   1_556  A
C765        H774   1.084       .  S
C766        C767   1.409   1_554  A
C766        H775   1.084       .  S
C767        C768   1.410       .  A
C768        H776   1.084       .  S
C777        C778   1.399       .  A
C777        C782   1.403       .  A
C777        H793   1.084       .  S
C778        C779   1.404       .  A
C778        H794   1.084       .  S
C779        C789   1.402       .  A
C779        C780   1.411       .  A
C780        C786   1.411   1_556  A
C780        C781   1.410       .  A
C781        C783   1.412   1_556  A
C781        C782   1.412       .  A
C782        C790   1.402       .  A
C783        C792   1.401       .  A
C783        C784   1.403       .  A
C784        C785   1.398       .  A
C784        H795   1.084       .  S
C785        C786   1.403       .  A
C785        H796   1.084       .  S
C786        C787   1.401       .  A
C787        C788   1.407   1_554  A
C787        H797   1.084       .  S
C788        C789   1.409       .  A
C789        H798   1.084       .  S
C790        C791   1.403       .  A
C790        H799   1.084       .  S
C791        C792   1.402   1_556  A
C792        H800   1.085       .  S
C801        C802   1.397       .  A
C801        C806   1.402       .  A
C801        H817   1.084       .  S
C802        C803   1.403       .  A
C802        H818   1.084       .  S
C803        C813   1.399       .  A
C803        C804   1.411       .  A
C804        C810   1.412   1_556  A
C804        C805   1.409       .  A
C805        C807   1.412   1_556  A
C805        C806   1.412       .  A
C806        C814   1.400       .  A
C807        C816   1.401       .  A
C807        C808   1.403       .  A
C808        C809   1.399       .  A
C808        H819   1.084       .  S
C809        C810   1.403       .  A
C809        H820   1.084       .  S
C810        C811   1.402       .  A
C811        C812   1.406   1_554  A
C811        H821   1.084       .  S
C812        C813   1.405       .  A
C813        H822   1.084       .  S
C814        C815   1.402       .  A
C814        H823   1.085       .  S
C815        C816   1.404   1_556  A
C816        H824   1.084       .  S
C825        C826   1.401       .  A
C825        C830   1.404       .  A
C825        H841   1.083       .  S
C826        C827   1.404       .  A
C826        H842   1.083       .  S
C827        C837   1.405       .  A
C827        C828   1.411   1_554  A
C828        C834   1.414       .  A
C828        C829   1.417   1_556  A
C829        C831   1.410   1_554  A
C829        C830   1.413       .  A
C830        C838   1.410       .  A
C831        C840   1.407       .  A
C831        C832   1.405       .  A
C832        C833   1.402       .  A
C832        H843   1.084       .  S
C833        C834   1.405       .  A
C833        H844   1.083       .  S
C834        C835   1.410       .  A
C835        C836   1.407       .  A
C835        H845   1.084       .  S
C836        C837   1.405   1_556  A
C837        H846   1.084       .  S
C838        C839   1.409       .  A
C838        H847   1.084       .  S
C839        C840   1.412   1_554  A
C840        H848   1.084       .  S
C849        C850   1.399       .  A
C849        C854   1.404       .  A
C849        H865   1.083       .  S
C850        C851   1.403       .  A
C850        H866   1.084       .  S
C851        C861   1.404       .  A
C851        C852   1.411       .  A
C852        C858   1.413   1_554  A
C852        C853   1.417       .  A
C853        C855   1.411   1_554  A
C853        C854   1.412       .  A
C854        C862   1.406       .  A
C855        C864   1.410       .  A
C855        C856   1.406       .  A
C856        C857   1.403       .  A
C856        H867   1.084       .  S
C857        C858   1.405       .  A
C857        H868   1.084       .  S
C858        C859   1.410       .  A
C859        C860   1.409       .  A
C859        H869   1.084       .  S
C860        C861   1.407   1_556  A
C861        H870   1.084       .  S
C862        C863   1.408       .  A
C862        H871   1.084       .  S
C863        C864   1.412   1_554  A
C864        H872   1.084       .  S
C873        C874   1.403       .  A
C873        C878   1.405       .  A
C873        H889   1.083       .  S
C874        C875   1.405       .  A
C874        H890   1.083       .  S
C875        C885   1.409       .  A
C875        C876   1.411       .  A
C876        C882   1.413   1_554  A
C876        C877   1.418       .  A
C877        C879   1.410   1_554  A
C877        C878   1.413       .  A
C878        C886   1.411       .  A
C879        C888   1.406       .  A
C879        C880   1.405       .  A
C880        C881   1.401       .  A
C880        H891   1.084       .  S
C881        C882   1.404       .  A
C881        H892   1.083       .  S
C882        C883   1.408       .  A
C883        C884   1.406       .  A
C883        H893   1.084       .  S
C884        C885   1.410   1_556  A
C885        H894   1.084       .  S
C886        C887   1.411       .  A
C886        H895   1.084       .  S
C887        C888   1.412   1_554  A
C888        H896   1.084       .  S
C897        C898   1.399       .  A
C897        C902   1.403       .  A
C897        H913   1.083       .  S
C898        C899   1.403       .  A
C898        H914   1.083       .  S
C899        C909   1.403       .  A
C899        C900   1.411   1_554  A
C900        C906   1.414       .  A
C900        C901   1.416       .  A
C901        C903   1.410       .  A
C901        C902   1.412   1_556  A
C902        C910   1.405       .  A
C903        C912   1.408       .  A
C903        C904   1.406       .  A
C904        C905   1.403       .  A
C904        H915   1.084       .  S
C905        C906   1.405       .  A
C905        H916   1.083       .  S
C906        C907   1.411       .  A
C907        C908   1.407       .  A
C907        H917   1.084       .  S
C908        C909   1.404   1_556  A
C909        H918   1.085       .  S
C910        C911   1.407       .  A
C910        H919   1.084       .  S
C911        C912   1.413   1_554  A
C912        H920   1.084       .  S
