geometry optimzed in LAMMPS
_audit_creation_date              2020-11-30 
_audit_creation_method            'lammps2cif' 
_symmetry_space_group_name_H-M    'P1' 
_symmetry_Int_Tables_number       1 
_symmetry_cell_setting            triclinic 
loop_ 
_symmetry_equiv_pos_as_xyz 
  x,y,z 
_cell_length_a                    70.14286944 
_cell_length_b                    70.30736178221235 
_cell_length_c                    33.944288416308204 
_cell_angle_alpha                 90.01377843882436 
_cell_angle_beta                  90.14940464992445 
_cell_angle_gamma                 90.3166191882052 
loop_ 
_atom_site_label 
_atom_site_type_symbol 
_atom_site_fract_x 
_atom_site_fract_y 
_atom_site_fract_z 
_atom_site_charge 
In1        In  0.87363235  0.62699830  0.99827393     1.36900
C2          C  0.87911116  0.66442251  0.99317740     0.77300
O3          O  0.90318640  0.62275174  0.97328084    -0.61100
O4          O  0.87936371  0.61602875  0.93736692    -0.52000
C5          C  0.87787527  0.60609336  0.06365567     0.70000
O6          O  0.88121060  0.62371082  0.06226700    -0.46900
C7          C  0.83576306  0.62491997  0.99673411     0.74700
O8          O  0.88563463  0.65466882  0.02135941    -0.58700
O9          O  0.84600989  0.61451506  0.97520019    -0.48800
O10         O  0.86990115  0.65496597  0.96786807    -0.55200
C11         C  0.89721839  0.61787214  0.93962904     0.84900
O12         O  0.87401516  0.59876756  0.03062881    -0.57100
O13         O  0.84494579  0.63647156  0.01794991    -0.60400
In14       In  0.87605377  0.87783336  0.00241537     1.36900
C15         C  0.87862213  0.84010733  0.00334074     0.77300
O16         O  0.90520629  0.87971665  0.03021952    -0.61100
O17         O  0.88123505  0.88705844  0.06480552    -0.52000
C18         C  0.88387313  0.90114974  0.94274652     0.70000
O19         O  0.88629583  0.88341340  0.94099941    -0.46900
C20         C  0.83838831  0.88167482  0.99864555     0.74700
O21         O  0.88702123  0.85018710  0.97787509    -0.58700
O22         O  0.84822503  0.88909865  0.02588553    -0.48800
O23         O  0.86906180  0.84940775  0.02803930    -0.55200
C24         C  0.89897077  0.88426723  0.06372941     0.84900
O25         O  0.87906014  0.90716536  0.97628654    -0.57100
O26         O  0.84786926  0.87232987  0.97390707    -0.60400
In27       In  0.62482429  0.88075748  0.99089936     1.36900
C28         C  0.66243289  0.88340650  0.99632081     0.77300
O29         O  0.62506664  0.91050550  0.01479057    -0.61100
O30         O  0.61363327  0.88883804  0.05121476    -0.52000
C31         C  0.60269108  0.88666271  0.92792260     0.70000
O32         O  0.62037056  0.89002564  0.92800032    -0.46900
C33         C  0.62279724  0.84293808  0.99142199     0.74700
O34         O  0.65326774  0.89060765  0.96788815    -0.58700
O35         O  0.61250849  0.85298955  0.01372113    -0.48800
O36         O  0.65226598  0.87489623  0.02144008    -0.55200
C37         C  0.61878620  0.90602343  0.04829837     0.84900
O38         O  0.59614377  0.88165333  0.96092422    -0.57100
O39         O  0.63374380  0.85231130  0.96928413    -0.60400
In40       In  0.62263195  0.62940432  0.98741907     1.36900
C41         C  0.66021800  0.62561464  0.98449036     0.77300
O42         O  0.62108220  0.59946888  0.96405505    -0.61100
O43         O  0.61197328  0.62185058  0.92672453    -0.52000
C44         C  0.60113626  0.62371169  0.05109242     0.70000
O45         O  0.61906247  0.62470806  0.05245278    -0.46900
C46         C  0.61807125  0.66703118  0.98453622     0.74700
O47         O  0.65029234  0.61854376  0.01191654    -0.58700
O48         O  0.60760782  0.65577201  0.96502172    -0.48800
O49         O  0.65081403  0.63453124  0.95873834    -0.55200
C50         C  0.61511299  0.60427654  0.93042865     0.84900
O51         O  0.59429601  0.62415855  0.01673617    -0.57100
O52         O  0.63091217  0.65899017  0.00428064    -0.60400
C53         C  0.66329320  0.50765460  0.56651930     0.86200
C54         C  0.65080871  0.48960894  0.56516224    -0.54000
C55         C  0.63298010  0.49186901  0.58068438     0.09200
C56         C  0.62940748  0.51202092  0.59687232     0.20100
C57         C  0.65111687  0.52315164  0.54632770    -0.54700
C58         C  0.63340726  0.52541803  0.56217116     0.09300
C59         C  0.66338817  0.51359908  0.61024305    -0.54300
C60         C  0.64566636  0.51601829  0.62649153     0.09800
H61         H  0.65549874  0.47642600  0.55173623     0.14300
H62         H  0.61493819  0.51380405  0.60904370     0.00100
H63         H  0.65606048  0.53242598  0.52309349     0.14700
H64         H  0.67654551  0.51574514  0.62651403     0.14400
C65         C  0.82946164  0.50840999  0.43101378     0.86200
C66         C  0.84038862  0.48950063  0.43097352    -0.54000
C67         C  0.85868275  0.49070246  0.41698198     0.09200
C68         C  0.86417236  0.51102246  0.40363705     0.20100
C69         C  0.84252915  0.52226131  0.45420858    -0.54700
C70         C  0.86073902  0.52364549  0.43995764     0.09300
C71         C  0.83068686  0.51570150  0.38831479    -0.54300
C72         C  0.84880011  0.51706595  0.37379744     0.09800
H73         H  0.83419233  0.47650151  0.44260071     0.14300
H74         H  0.87873964  0.51231221  0.39160132     0.00100
H75         H  0.83786436  0.53098349  0.47852859     0.14700
H76         H  0.81820348  0.51956002  0.37117336     0.14400
C77         C  0.50547679  0.67659203  0.41952622     0.86200
C78         C  0.48703891  0.66436629  0.41821638    -0.54000
C79         C  0.48940919  0.64676022  0.40166323     0.09200
C80         C  0.50990296  0.64319275  0.38727234     0.20100
C81         C  0.52005138  0.66382079  0.44074208    -0.54700
C82         C  0.52256759  0.64643396  0.42363363     0.09300
C83         C  0.51232684  0.67724531  0.37646300    -0.54300
C84         C  0.51484955  0.65977954  0.35956768     0.09800
H85         H  0.47355769  0.66850174  0.43090320     0.14300
H86         H  0.51185978  0.62902685  0.37364313     0.00100
H87         H  0.52819551  0.66850969  0.46624017     0.14700
H88         H  0.51557757  0.69045898  0.36128179     0.14400
C89         C  0.49551302  0.84076986  0.56771550     0.86200
C90         C  0.47739759  0.85316503  0.56837310    -0.54000
C91         C  0.48009818  0.87086755  0.58417095     0.09200
C92         C  0.50075051  0.87450939  0.59805239     0.20100
C93         C  0.51032719  0.85310534  0.54579167    -0.54700
C94         C  0.51339769  0.87076784  0.56184029     0.09300
C95         C  0.50246767  0.84059401  0.61080397    -0.54300
C96         C  0.50555343  0.85823802  0.62657002     0.09800
H97         H  0.46371693  0.84890707  0.55652101     0.14300
H98         H  0.50263876  0.88856474  0.61208223     0.00100
H99         H  0.51786215  0.84794491  0.52009229     0.14700
H100        H  0.50583498  0.82756170  0.62643630     0.14400
C101        C  0.99675621  0.67032432  0.58141366     0.86200
C102        C  0.01576454  0.65928977  0.58045369    -0.54000
C103        C  0.01431954  0.64083272  0.59272015     0.09200
C104        C  0.99402919  0.63503009  0.60519346     0.20100
C105        C  0.98297830  0.65797771  0.55685354    -0.54700
C106        C  0.98141939  0.63944135  0.56895610     0.09300
C107        C  0.98975941  0.66810667  0.62400957    -0.54300
C108        C  0.98830897  0.64969868  0.63703415     0.09800
H109        H  0.02920370  0.66494736  0.57011209     0.14300
H110        H  0.99339611  0.62007272  0.61514551     0.00100
H111        H  0.97491713  0.66372350  0.53230819     0.14700
H112        H  0.98587985  0.68030644  0.64176493     0.14400
C113        C  0.98170597  0.83714484  0.44840094     0.86200
C114        C  0.00062220  0.84852569  0.44579480    -0.54000
C115        C  0.99890377  0.86595133  0.42826490     0.09200
C116        C  0.97853478  0.87035189  0.41436456     0.20100
C117        C  0.96787944  0.85081475  0.46920172    -0.54700
C118        C  0.96608870  0.86818673  0.45134805     0.09300
C119        C  0.97447653  0.83626433  0.40555041    -0.54300
C120        C  0.97273112  0.85360386  0.38775689     0.09800
H121        H  0.01416673  0.84385870  0.45742639     0.14300
H122        H  0.97723978  0.88438029  0.39972505     0.00100
H123        H  0.95982381  0.84678990  0.49519488     0.14700
H124        H  0.97073668  0.82303672  0.39083375     0.14400
C125        C  0.66470212  0.99936434  0.42020573     0.86200
C126        C  0.65263061  0.01748961  0.42351298    -0.54000
C127        C  0.63420892  0.01543607  0.41075963     0.09200
C128        C  0.62959175  0.99530137  0.39538909     0.20100
C129        C  0.65317716  0.98400405  0.44224466    -0.54700
C130        C  0.63490056  0.98178352  0.42908472     0.09300
C131        C  0.66287531  0.99354231  0.37623202    -0.54300
C132        C  0.64445454  0.99129160  0.36330457     0.09800
H133        H  0.65814747  0.03066505  0.43587457     0.14300
H134        H  0.61464848  0.99342217  0.38539558     0.00100
H135        H  0.65922897  0.97516400  0.46529130     0.14700
H136        H  0.67476443  0.99102734  0.35679469     0.14400
C137        C  0.82293066  0.00423906  0.59695746     0.86200
C138        C  0.83501346  0.02249408  0.59184559    -0.54000
C139        C  0.85357547  0.02072348  0.60375214     0.09200
C140        C  0.85826489  0.00100259  0.62048361     0.20100
C141        C  0.83430369  0.98860215  0.57545570    -0.54700
C142        C  0.85275276  0.98678070  0.58806226     0.09300
C143        C  0.82519957  0.99904468  0.64112934    -0.54300
C144        C  0.84372655  0.99737034  0.65321702     0.09800
H145        H  0.82949709  0.03542530  0.57868363     0.14300
H146        H  0.87325875  0.99970479  0.63054111     0.00100
H147        H  0.82799339  0.97930402  0.55339055     0.14700
H148        H  0.81361373  0.99619828  0.66125594     0.14400
In149      In  0.12340502  0.37355339  0.98605045     1.36900
C150        C  0.12068314  0.33593920  0.98153317     0.77300
O151        O  0.15317913  0.36651755  0.96793661    -0.61100
O152        O  0.14951115  0.38954423  0.00741509    -0.52000
C153        C  0.11601553  0.39632579  0.92498893     0.70000
O154        O  0.11483130  0.37846008  0.92310992    -0.46900
C155        C  0.09993425  0.37763987  0.04767649     0.74700
O156        O  0.11265693  0.34675627  0.95690916    -0.58700
O157        O  0.11781197  0.37890425  0.05036679    -0.48800
O158        O  0.13003076  0.34446671  0.00802234    -0.55200
C159        C  0.16099222  0.37948233  0.98795978     0.84900
O160        O  0.11972721  0.40264752  0.95894910    -0.57100
O161        O  0.09393060  0.37556684  0.01287650    -0.60400
In162      In  0.12033605  0.12230774  0.99488749     1.36900
C163        C  0.11866323  0.16000142  0.00019176     0.77300
O164        O  0.14974798  0.12833266  0.01702325    -0.61100
O165        O  0.14690307  0.11134328  0.96560887    -0.52000
C166        C  0.11512535  0.09620261  0.05096609     0.70000
O167        O  0.10931606  0.11308650  0.05448186    -0.46900
C168        C  0.09475219  0.11800518  0.93713538     0.74700
O169        O  0.11405557  0.14928326  0.02855504    -0.58700
O170        O  0.11239840  0.11567117  0.93228765    -0.48800
O171        O  0.12401748  0.15134206  0.96971147    -0.55200
C172        C  0.15800255  0.11896936  0.99044834     0.84900
O173        O  0.12197953  0.09239799  0.01761701    -0.57100
O174        O  0.08998997  0.12105925  0.97239714    -0.60400
In175      In  0.37117314  0.12924279  0.00079811     1.36900
C176        C  0.37769351  0.16659532  0.99844778     0.77300
O177        O  0.34149360  0.13537294  0.98082733    -0.61100
O178        O  0.34517352  0.11586733  0.02805236    -0.52000
C179        C  0.37530636  0.10717631  0.93727750     0.70000
O180        O  0.37617342  0.12507618  0.93627156    -0.46900
C181        C  0.39344509  0.12336622  0.06338486     0.74700
O182        O  0.38850243  0.15476258  0.98187951    -0.58700
O183        O  0.37557594  0.12473663  0.06550056    -0.48800
O184        O  0.36343825  0.15928139  0.01522158    -0.55200
C185        C  0.33370598  0.12434655  0.00536403     0.84900
O186        O  0.37393787  0.10035642  0.97156383    -0.57100
O187        O  0.39982958  0.12320966  0.02866294    -0.60400
In188      In  0.37512673  0.37927401  0.99294612     1.36900
C189        C  0.33724592  0.38076337  0.99318602     0.77300
O190        O  0.36906596  0.35106315  0.96625327    -0.61100
O191        O  0.38713577  0.35175993  0.01655990    -0.52000
C192        C  0.39816207  0.38540155  0.93189188     0.70000
O193        O  0.38031299  0.38715803  0.92984620    -0.46900
C194        C  0.38127733  0.40179052  0.05514852     0.74700
O195        O  0.34718577  0.39155644  0.97152515    -0.58700
O196        O  0.38461210  0.38418115  0.05538756    -0.48800
O197        O  0.34677703  0.36980461  0.01489732    -0.55200
C198        C  0.37887466  0.34175839  0.99059332     0.84900
O199        O  0.40441968  0.38260680  0.96626198    -0.57100
O200        O  0.37611718  0.40817031  0.02205664    -0.60400
C201        C  0.17104692  0.50105684  0.57504189     0.86200
C202        C  0.16846371  0.49456752  0.61832841    -0.54000
C203        C  0.14988620  0.49182583  0.62923233     0.09200
C204        C  0.13561181  0.49597410  0.59603808     0.20100
C205        C  0.16031233  0.48568047  0.55110783    -0.54700
C206        C  0.14173270  0.48280129  0.56214310     0.09300
C207        C  0.15867315  0.51899755  0.57145134    -0.54300
C208        C  0.14009837  0.51630606  0.58214240     0.09800
H209        H  0.17997805  0.49124346  0.63830100     0.14300
H210        H  0.12068006  0.49441054  0.60581754     0.00100
H211        H  0.16710234  0.47773921  0.52766216     0.14700
H212        H  0.16405538  0.53250097  0.56048455     0.14400
C213        C  0.33299803  0.50321098  0.41838648     0.86200
C214        C  0.33344754  0.49605947  0.37552321    -0.54000
C215        C  0.35136095  0.49454302  0.35997521     0.09200
C216        C  0.36724217  0.50079792  0.38863556     0.20100
C217        C  0.34646844  0.48956775  0.44079579    -0.54700
C218        C  0.36428900  0.48808160  0.42500448     0.09300
C219        C  0.34403025  0.52220134  0.41765404    -0.54300
C220        C  0.36200205  0.52116710  0.40202191     0.09800
H221        H  0.32068797  0.49168913  0.35967755     0.14300
H222        H  0.38155369  0.49967476  0.37527200     0.00100
H223        H  0.34275686  0.48177542  0.46709489     0.14700
H224        H  0.33809652  0.53522972  0.42943740     0.14400
C225        C  0.48990719  0.16562807  0.43792074     0.86200
C226        C  0.48140924  0.16490626  0.39599408    -0.54000
C227        C  0.47696661  0.14697817  0.38310640     0.09200
C228        C  0.48183688  0.13133829  0.41322041     0.20100
C229        C  0.47538691  0.15485517  0.46367335    -0.54700
C230        C  0.47086665  0.13690609  0.45081734     0.09300
C231        C  0.50726633  0.15226231  0.43599616    -0.54300
C232        C  0.50309345  0.13430751  0.42313575     0.09800
H233        H  0.47845800  0.17758175  0.37881504     0.14300
H234        H  0.47872050  0.11692761  0.40180612     0.00100
H235        H  0.46930833  0.16116683  0.48992088     0.14700
H236        H  0.52163353  0.15615969  0.44434186     0.14400
C237        C  0.49149091  0.33398209  0.56388077     0.86200
C238        C  0.48382458  0.33672348  0.60597431    -0.54000
C239        C  0.48184728  0.35530008  0.61689097     0.09200
C240        C  0.48827832  0.36952262  0.58514954     0.20100
C241        C  0.47810346  0.34579598  0.53758243    -0.54700
C242        C  0.47614704  0.36437408  0.54875803     0.09300
C243        C  0.51052372  0.34512840  0.56374495    -0.54300
C244        C  0.50885950  0.36376339  0.57481530     0.09800
H245        H  0.47934895  0.32497915  0.62462814     0.14300
H246        H  0.48699979  0.38446133  0.59516376     0.00100
H247        H  0.47059620  0.33968216  0.51256624     0.14700
H248        H  0.52416407  0.33920311  0.55566465     0.14400
C249        C  0.15385318  0.00874729  0.43054179     0.86200
C250        C  0.15316948  0.01345707  0.38595547    -0.54000
C251        C  0.13513955  0.01590144  0.37122814     0.09200
C252        C  0.11946928  0.01325870  0.40238162     0.20100
C253        C  0.14256149  0.02493939  0.45006822    -0.54700
C254        C  0.12465523  0.02736679  0.43516270     0.09300
C255        C  0.14093027  0.99106567  0.43461985    -0.54300
C256        C  0.12284107  0.99345091  0.42033187     0.09800
H257        H  0.16552478  0.01471375  0.36717967     0.14300
H258        H  0.10481460  0.01532015  0.39093728     0.00100
H259        H  0.14843439  0.03396347  0.47312568     0.14700
H260        H  0.14553677  0.97806654  0.44895319     0.14400
C261        C  0.31850467  0.00591417  0.57954083     0.86200
C262        C  0.31978390  0.01289619  0.62275744    -0.54000
C263        C  0.33802321  0.01451529  0.63681456     0.09200
C264        C  0.35330263  0.00909039  0.60660908     0.20100
C265        C  0.33113960  0.01998447  0.55649941    -0.54700
C266        C  0.34927171  0.02178003  0.57077306     0.09300
C267        C  0.32976475  0.98714389  0.57948665    -0.54300
C268        C  0.34808784  0.98879523  0.59311665     0.09800
H269        H  0.30770683  0.01617312  0.64124853     0.14300
H270        H  0.36805288  0.01058299  0.61811739     0.00100
H271        H  0.32598237  0.02814150  0.53151346     0.14700
H272        H  0.32393767  0.97391801  0.56799228     0.14400
C273        C  0.99615821  0.17664517  0.57630203     0.86200
C274        C  0.00372935  0.17647391  0.61920144    -0.54000
C275        C  0.00512965  0.15872713  0.63540826     0.09200
C276        C  0.99852163  0.14276820  0.60760095     0.20100
C277        C  0.00947576  0.16297671  0.55416744    -0.54700
C278        C  0.01085987  0.14530309  0.57064840     0.09300
C279        C  0.97695453  0.16590729  0.57868097    -0.54300
C280        C  0.97815356  0.14803468  0.59464001     0.09800
H281        H  0.00792456  0.18893796  0.63578471     0.14300
H282        H  0.99962015  0.12843334  0.62089430     0.00100
H283        H  0.01763412  0.16724147  0.52846360     0.14700
H284        H  0.96374990  0.17173010  0.56725680     0.14400
C285        C  0.00320675  0.33943601  0.42179307     0.86200
C286        C  0.01104346  0.34037789  0.37914710    -0.54000
C287        C  0.01396257  0.35850066  0.36557394     0.09200
C288        C  0.00839662  0.37395758  0.39529172     0.20100
C289        C  0.01756201  0.35139490  0.44592626    -0.54700
C290        C  0.02025214  0.36947163  0.43219183     0.09300
C291        C  0.98497678  0.35152044  0.42059079    -0.54300
C292        C  0.98761004  0.36963772  0.40686012     0.09800
H293        H  0.01504236  0.32818431  0.36165353     0.14300
H294        H  0.01068894  0.38855284  0.38387203     0.00100
H295        H  0.02485046  0.34596534  0.47181416     0.14700
H296        H  0.97119568  0.34612084  0.43003008     0.14400
C297        C  0.99491711  0.19601365  0.55536193    -0.03400
C298        C  0.98714123  0.19684738  0.51706111    -0.06100
C299        C  0.98670476  0.21396206  0.49586365    -0.21100
C300        C  0.99397172  0.23085635  0.51224168     0.24600
C301        C  0.00190875  0.23012593  0.55030209    -0.18700
C302        C  0.00235097  0.21303676  0.57152534    -0.08700
C303        C  0.99400840  0.24866192  0.48808786    -0.18900
C304        C  0.99482723  0.26632005  0.50378239    -0.23700
C305        C  0.99568084  0.28432951  0.48037227     0.26600
C306        C  0.99137035  0.30152556  0.49927174    -0.20500
C307        C  0.99332578  0.31892034  0.47963443    -0.10200
C308        C  0.99990790  0.31979475  0.44048390    -0.10700
C309        C  0.00376065  0.30245082  0.42117607    -0.03600
C310        C  0.00173883  0.28499397  0.44087826    -0.18700
H311        H  0.98158858  0.18407571  0.50324146     0.10300
H312        H  0.98072824  0.21397142  0.46640646     0.10400
H313        H  0.00837740  0.24259577  0.56350220     0.10100
H314        H  0.00912160  0.21346518  0.60000250     0.11200
H315        H  0.99272176  0.24704044  0.45641217     0.11300
H316        H  0.99441197  0.26784522  0.53557967     0.13200
H317        H  0.98669117  0.30154578  0.52966281     0.09700
H318        H  0.99010041  0.33188492  0.49546800     0.11800
H319        H  0.00868850  0.30202545  0.39116264     0.08400
H320        H  0.00554987  0.27215288  0.42531815     0.11200
C321        C  0.02412243  0.13043962  0.55629104    -0.03400
C322        C  0.03350639  0.11862423  0.58335944    -0.06100
C323        C  0.04619407  0.10475087  0.57039900    -0.21100
C324        C  0.04995830  0.10239399  0.53011783     0.24600
C325        C  0.04039491  0.11410581  0.50284867    -0.18700
C326        C  0.02767169  0.12803558  0.51588552    -0.08700
C327        C  0.06360381  0.08728755  0.51827929    -0.18900
C328        C  0.07225884  0.08644450  0.48291685    -0.23700
C329        C  0.08593834  0.07123751  0.47185728     0.26600
C330        C  0.08878647  0.06734350  0.43174445    -0.20500
C331        C  0.10134556  0.05307760  0.41995628    -0.10200
C332        C  0.11161250  0.04264163  0.44804411    -0.10700
C333        C  0.10920519  0.04677883  0.48814430    -0.03600
C334        C  0.09647055  0.06091282  0.50001147    -0.18700
H335        H  0.03138712  0.12032741  0.61473625     0.10300
H336        H  0.05328892  0.09594320  0.59206913     0.10400
H337        H  0.04236585  0.11244203  0.47148133     0.10100
H338        H  0.02039943  0.13674154  0.49431905     0.11200
H339        H  0.06672311  0.07650750  0.54018026     0.11300
H340        H  0.06908304  0.09702022  0.46065195     0.13200
H341        H  0.08109735  0.07523304  0.40942969     0.09700
H342        H  0.10320297  0.05034589  0.38879662     0.11800
H343        H  0.11700050  0.03890798  0.51031712     0.08400
H344        H  0.09521727  0.06385057  0.53115301     0.11200
C345        C  0.17347322  0.00626011  0.45001127    -0.03400
C346        C  0.17429583  0.00146957  0.49028553    -0.06100
C347        C  0.19174867  0.00011908  0.51016163    -0.21100
C348        C  0.20902661  0.00346769  0.49051401     0.24600
C349        C  0.20835558  0.00815787  0.45021051    -0.18700
C350        C  0.19088212  0.00947169  0.43025228    -0.08700
C351        C  0.22719176  0.00296827  0.51369496    -0.18900
C352        C  0.24473836  0.00180004  0.49755562    -0.23700
C353        C  0.26291679  0.00208174  0.52068087     0.26600
C354        C  0.27968068  0.99580417  0.50246383    -0.20500
C355        C  0.29723518  0.99676361  0.52207016    -0.10200
C356        C  0.29867188  0.00403197  0.56065908    -0.10700
C357        C  0.28177534  0.01026409  0.57898338    -0.03600
C358        C  0.26419749  0.00935793  0.55925256    -0.18700
H359        H  0.16127076  0.99905325  0.50665675     0.10300
H360        H  0.19171616  0.99662597  0.54124343     0.10400
H361        H  0.22120055  0.01142871  0.43400153     0.10100
H362        H  0.19138791  0.01352255  0.39968527     0.11200
H363        H  0.22585777  0.00313855  0.54551407     0.11300
H364        H  0.24603829  0.00005995  0.46594263     0.13200
H365        H  0.27924829  0.99029470  0.47266524     0.09700
H366        H  0.30988515  0.99205790  0.50673529     0.11800
H367        H  0.28184905  0.01643579  0.60802733     0.08400
H368        H  0.25181051  0.01496112  0.57404783     0.11200
C369        C  0.45616306  0.12445678  0.47008385    -0.03400
C370        C  0.44174261  0.13224116  0.49397421    -0.06100
C371        C  0.42781552  0.12057369  0.51116134    -0.21100
C372        C  0.42766240  0.10091453  0.50426942     0.24600
C373        C  0.44208954  0.09304266  0.48087565    -0.18700
C374        C  0.45610006  0.10464765  0.46404518    -0.08700
C375        C  0.41261613  0.08885499  0.52251075    -0.18900
C376        C  0.40578017  0.07300449  0.50501275    -0.23700
C377        C  0.39089719  0.06055971  0.52268463     0.26600
C378        C  0.37923148  0.04961350  0.49766944    -0.20500
C379        C  0.36553155  0.03719679  0.51318677    -0.10200
C380        C  0.36352130  0.03517892  0.55410642    -0.10700
C381        C  0.37528446  0.04596816  0.57921127    -0.03600
C382        C  0.38878822  0.05861735  0.56370437    -0.18700
H383        H  0.44085112  0.14739527  0.49893988     0.10300
H384        H  0.41688519  0.12698019  0.52925040     0.10400
H385        H  0.44276406  0.07784584  0.47599721     0.10100
H386        H  0.46688633  0.09783296  0.44660942     0.11200
H387        H  0.40638542  0.09370388  0.54996349     0.11300
H388        H  0.41070411  0.06935145  0.47566682     0.13200
H389        H  0.38071329  0.05069936  0.46598790     0.09700
H390        H  0.35676568  0.02888393  0.49321474     0.11800
H391        H  0.37392645  0.04473920  0.61088696     0.08400
H392        H  0.39783717  0.06647778  0.58387213     0.11200
C393        C  0.49325302  0.18599117  0.45282506    -0.03400
C394        C  0.51098967  0.19264813  0.46714880    -0.06100
C395        C  0.51307143  0.21124626  0.48129866    -0.21100
C396        C  0.49758938  0.22377301  0.48194813     0.24600
C397        C  0.47989757  0.21730938  0.46736833    -0.18700
C398        C  0.47777876  0.19868668  0.45333489    -0.08700
C399        C  0.50070057  0.24352262  0.49695608    -0.18900
C400        C  0.48651676  0.25483710  0.50974474    -0.23700
C401        C  0.48907991  0.27471519  0.52457945     0.26600
C402        C  0.47320260  0.28384495  0.54082348    -0.20500
C403        C  0.47438039  0.30267653  0.55369594    -0.10200
C404        C  0.49154654  0.31307437  0.55116560    -0.10700
C405        C  0.50757700  0.30387246  0.53512903    -0.03600
C406        C  0.50634596  0.28499006  0.52189977    -0.18700
H407        H  0.52343165  0.18377649  0.46820406     0.10300
H408        H  0.52689363  0.21582551  0.49215634     0.10400
H409        H  0.46767353  0.22658065  0.46606416     0.10100
H410        H  0.46392215  0.19413817  0.44263943     0.11200
H411        H  0.51533734  0.24844812  0.49866888     0.11300
H412        H  0.47210231  0.24919174  0.51032398     0.13200
H413        H  0.45966613  0.27644160  0.54317119     0.09700
H414        H  0.46167565  0.30928903  0.56536443     0.11800
H415        H  0.52103773  0.31112147  0.53155520     0.08400
H416        H  0.51891213  0.27880499  0.50893436     0.11200
C417        C  0.46231183  0.37773790  0.53007543    -0.03400
C418        C  0.44549142  0.37095988  0.51206884    -0.06100
C419        C  0.43197366  0.38362018  0.49701316    -0.21100
C420        C  0.43486049  0.40336451  0.49948939     0.24600
C421        C  0.45172990  0.41013604  0.51729557    -0.18700
C422        C  0.46523360  0.39749186  0.53218494    -0.08700
C423        C  0.41956475  0.41628427  0.48498902    -0.18900
C424        C  0.42203193  0.43511841  0.47918799    -0.23700
C425        C  0.40673939  0.44817735  0.46561781     0.26600
C426        C  0.41210096  0.46572304  0.44929545    -0.20500
C427        C  0.39837432  0.47864131  0.43648282    -0.10200
C428        C  0.37886917  0.47447457  0.43996392    -0.10700
C429        C  0.37343627  0.45697391  0.45685031    -0.03600
C430        C  0.38719230  0.44399657  0.46969019    -0.18700
H431        H  0.44238433  0.35588823  0.51065178     0.10300
H432        H  0.41905056  0.37794027  0.48388041     0.10400
H433        H  0.45450327  0.42515179  0.52099361     0.10100
H434        H  0.47784973  0.40339909  0.54571354     0.11200
H435        H  0.40588558  0.40982002  0.47805102     0.11300
H436        H  0.43605854  0.44139067  0.48293691     0.13200
H437        H  0.42703268  0.46944890  0.44623873     0.09700
H438        H  0.40316912  0.49195678  0.42426942     0.11800
H439        H  0.35854428  0.45310917  0.45961803     0.08400
H440        H  0.38239262  0.43088477  0.48312338     0.11200
C441        C  0.03385043  0.38334209  0.44982842    -0.03400
C442        C  0.02979155  0.40284739  0.44870197    -0.06100
C443        C  0.04300764  0.41614192  0.46262248    -0.21100
C444        C  0.06061298  0.41032355  0.47809081     0.24600
C445        C  0.06451474  0.39071859  0.48028043    -0.18700
C446        C  0.05125621  0.37738046  0.46618109    -0.08700
C447        C  0.07398634  0.42530528  0.49237242    -0.18900
C448        C  0.09236621  0.42247669  0.50244668    -0.23700
C449        C  0.10483802  0.43812193  0.51724597     0.26600
C450        C  0.12469517  0.43670714  0.51344189    -0.20500
C451        C  0.13670617  0.45123980  0.52733014    -0.10200
C452        C  0.12909993  0.46755632  0.54547642    -0.10700
C453        C  0.10919176  0.46872202  0.54951379    -0.03600
C454        C  0.09727758  0.45419547  0.53603652    -0.18700
H455        H  0.01633210  0.40790179  0.43720495     0.10300
H456        H  0.03945764  0.43110339  0.46110096     0.10400
H457        H  0.07765837  0.38551780  0.49283018     0.10100
H458        H  0.05483539  0.36243214  0.46727400     0.11200
H459        H  0.06837366  0.43964305  0.49330040     0.11300
H460        H  0.09878645  0.40861966  0.49855858     0.13200
H461        H  0.13093870  0.42431973  0.49968244     0.09700
H462        H  0.15193203  0.44938137  0.52452820     0.11800
H463        H  0.10248053  0.48076452  0.56317715     0.08400
H464        H  0.08214373  0.45556523  0.54119828     0.11200
C465        C  0.31255519  0.50511229  0.43424486    -0.03400
C466        C  0.30007115  0.51838873  0.41690876    -0.06100
C467        C  0.28135683  0.52061815  0.43074513    -0.21100
C468        C  0.27455470  0.50966973  0.46238795     0.24600
C469        C  0.28672014  0.49598191  0.47887968    -0.18700
C470        C  0.30533652  0.49373958  0.46514142    -0.08700
C471        C  0.25448843  0.51198671  0.47632485    -0.18900
C472        C  0.24898982  0.50739806  0.51328820    -0.23700
C473        C  0.22898497  0.50755624  0.52841933     0.26600
C474        C  0.22610431  0.50360200  0.56849995    -0.20500
C475        C  0.20775425  0.50196640  0.58417269    -0.10200
C476        C  0.19149921  0.50410802  0.56007358    -0.10700
C477        C  0.19443303  0.50879264  0.52011838    -0.03600
C478        C  0.21286236  0.51039328  0.50438733    -0.18700
H479        H  0.30487677  0.52712924  0.39257382     0.10300
H480        H  0.27220408  0.53101102  0.41682122     0.10400
H481        H  0.28179843  0.48651842  0.50186836     0.10100
H482        H  0.31356080  0.48266729  0.47876516     0.11200
H483        H  0.24426588  0.51778172  0.45563192     0.11300
H484        H  0.25985570  0.50306087  0.53420378     0.13200
H485        H  0.23819134  0.50144531  0.58790677     0.09700
H486        H  0.20675612  0.49888825  0.61515178     0.11800
H487        H  0.18232285  0.51074544  0.50070127     0.08400
H488        H  0.21425206  0.51337706  0.47331131     0.11200
C489        C  0.41041246  0.38490697  0.89646514    -0.03400
C490        C  0.43036684  0.38432264  0.89979838    -0.06100
C491        C  0.44168400  0.38120486  0.86646321    -0.21100
C492        C  0.43330623  0.37858818  0.82918156     0.24600
C493        C  0.41330948  0.37932633  0.82593258    -0.18700
C494        C  0.40204405  0.38258715  0.85912926    -0.08700
C495        C  0.44566498  0.37396384  0.79487252    -0.18900
C496        C  0.44035542  0.37695872  0.75717861    -0.23700
C497        C  0.45207175  0.37165494  0.72241555     0.26600
C498        C  0.44849727  0.38077713  0.68638348    -0.20500
C499        C  0.45851542  0.37572372  0.65247066    -0.10200
C500        C  0.47212112  0.36117576  0.65366060    -0.10700
C501        C  0.47566301  0.35188159  0.68952934    -0.03600
C502        C  0.46579923  0.35710778  0.72367239    -0.18700
H503        H  0.43719076  0.38580221  0.92829882     0.10300
H504        H  0.45702405  0.38053640  0.86990140     0.10400
H505        H  0.40619077  0.37667559  0.79816187     0.10100
H506        H  0.38668215  0.38246152  0.85579658     0.11200
H507        H  0.45974621  0.36837750  0.80110570     0.11300
H508        H  0.42704220  0.38420961  0.75119858     0.13200
H509        H  0.43781990  0.39181466  0.68440779     0.09700
H510        H  0.45521068  0.38284631  0.62501942     0.11800
H511        H  0.48603161  0.34054926  0.69110445     0.08400
H512        H  0.46859226  0.34935975  0.75057283     0.11200
C513        C  0.38220441  0.41360985  0.09130584    -0.03400
C514        C  0.38842725  0.40565518  0.12700546    -0.06100
C515        C  0.38725812  0.41597679  0.16215508    -0.21100
C516        C  0.37964332  0.43441631  0.16264852     0.24600
C517        C  0.37409310  0.44268163  0.12658968    -0.18700
C518        C  0.37533756  0.43235227  0.09134173    -0.08700
C519        C  0.37774544  0.44433258  0.20136083    -0.18900
C520        C  0.36562846  0.45885551  0.20802727    -0.23700
C521        C  0.36261065  0.46797133  0.24733812     0.26600
C522        C  0.34659717  0.47965668  0.25250041    -0.20500
C523        C  0.34292947  0.48834347  0.28882671    -0.10200
C524        C  0.35531023  0.48570152  0.32090701    -0.10700
C525        C  0.37144295  0.47418346  0.31575651    -0.03600
C526        C  0.37512144  0.46549334  0.27946127    -0.18700
H527        H  0.39379557  0.39124830  0.12794699     0.10300
H528        H  0.39185590  0.40929937  0.18929864     0.10400
H529        H  0.36875230  0.45706133  0.12530723     0.10100
H530        H  0.37046796  0.43887219  0.06424805     0.11200
H531        H  0.38576970  0.43842311  0.22572465     0.11300
H532        H  0.35660733  0.46373815  0.18413376     0.13200
H533        H  0.33676163  0.48198191  0.22834390     0.09700
H534        H  0.33047434  0.49725939  0.29169974     0.11800
H535        H  0.38112100  0.47155052  0.34001676     0.08400
H536        H  0.38784885  0.45700653  0.27696536     0.11200
C537        C  0.34283757  0.02183877  0.67671570    -0.03400
C538        C  0.35764760  0.01362130  0.69872531    -0.06100
C539        C  0.36298686  0.02124398  0.73530086    -0.21100
C540        C  0.35397548  0.03752364  0.75007614     0.24600
C541        C  0.33882710  0.04546255  0.72842296    -0.18700
C542        C  0.33329376  0.03765905  0.69219893    -0.08700
C543        C  0.36057911  0.04598733  0.78801346    -0.18900
C544        C  0.36046611  0.06492275  0.79423422    -0.23700
C545        C  0.36672482  0.07458074  0.83122553     0.26600
C546        C  0.37004731  0.09426994  0.82980728    -0.20500
C547        C  0.37393622  0.10458177  0.86407446    -0.10200
C548        C  0.37445368  0.09550631  0.90088962    -0.10700
C549        C  0.37189520  0.07565966  0.90241083    -0.03600
C550        C  0.36808336  0.06525316  0.86788856    -0.18700
H551        H  0.36509684  0.00128595  0.68762651     0.10300
H552        H  0.37451984  0.01471876  0.75161079     0.10400
H553        H  0.33120141  0.05769114  0.73945621     0.10100
H554        H  0.32188872  0.04432771  0.67576869     0.11200
H555        H  0.36665275  0.03655514  0.80993671     0.11300
H556        H  0.35592329  0.07409944  0.77027169     0.13200
H557        H  0.36910661  0.10185169  0.80209062     0.09700
H558        H  0.37575076  0.11985167  0.86186633     0.11800
H559        H  0.37207435  0.06830072  0.93043172     0.08400
H560        H  0.36537808  0.05014876  0.87040759     0.11200
C561        C  0.46697291  0.14288765  0.34517615    -0.03400
C562        C  0.45379745  0.12780378  0.34313736    -0.06100
C563        C  0.44421147  0.12367008  0.30808855    -0.21100
C564        C  0.44752514  0.13441043  0.27397432     0.24600
C565        C  0.46058520  0.14968754  0.27582232    -0.18700
C566        C  0.47019036  0.15389670  0.31116574    -0.08700
C567        C  0.43610024  0.12977766  0.23819677    -0.18900
C568        C  0.44114184  0.13428403  0.20104618    -0.23700
C569        C  0.42884539  0.12969348  0.16635451     0.26600
C570        C  0.43713328  0.12778096  0.12892206    -0.20500
C571        C  0.42574246  0.12464002  0.09549521    -0.10200
C572        C  0.40579771  0.12353941  0.09884278    -0.10700
C573        C  0.39754920  0.12503560  0.13634929    -0.03600
C574        C  0.40888603  0.12816131  0.16965275    -0.18700
H575        H  0.45047777  0.11937687  0.36892207     0.10300
H576        H  0.43402987  0.11202529  0.30771631     0.10400
H577        H  0.46312588  0.15862411  0.25041352     0.10100
H578        H  0.48020870  0.16566162  0.31178923     0.11200
H579        H  0.42320965  0.12147947  0.24286024     0.11300
H580        H  0.45486827  0.14097619  0.19561049     0.13200
H581        H  0.45243825  0.12900835  0.12546333     0.09700
H582        H  0.43248614  0.12375628  0.06689498     0.11800
H583        H  0.38220866  0.12455061  0.13981862     0.08400
H584        H  0.40182578  0.13015000  0.19762426     0.11200
C585        C  0.37988711  0.32082717  0.98892031    -0.03400
C586        C  0.36773004  0.31088045  0.96314256    -0.06100
C587        C  0.36735923  0.29107015  0.96298492    -0.21100
C588        C  0.37938077  0.28074399  0.98797665     0.24600
C589        C  0.39202931  0.29062418  0.01302678    -0.18700
C590        C  0.39219948  0.31056212  0.01361679    -0.08700
C591        C  0.37709733  0.25981944  0.98930185    -0.18900
C592        C  0.39127809  0.24773198  0.99795417    -0.23700
C593        C  0.38791914  0.22691117  0.99895357     0.26600
C594        C  0.40183088  0.21450087  0.98446167    -0.20500
C595        C  0.39850308  0.19484276  0.98392757    -0.10200
C596        C  0.38134798  0.18729935  0.99863360    -0.10700
C597        C  0.36769015  0.19971440  0.01422514    -0.03600
C598        C  0.37090962  0.21931890  0.01429603    -0.18700
H599        H  0.35807293  0.31841557  0.94378113     0.10300
H600        H  0.35745468  0.28376308  0.94357576     0.10400
H601        H  0.40121728  0.28301461  0.03318286     0.10100
H602        H  0.40168383  0.31792538  0.03378293     0.11200
H603        H  0.36321593  0.25406993  0.98116534     0.11300
H604        H  0.40571145  0.25305084  0.00209569     0.13200
H605        H  0.41510028  0.22005913  0.97281319     0.09700
H606        H  0.40934422  0.18555246  0.97211256     0.11800
H607        H  0.35444070  0.19427903  0.02620206     0.08400
H608        H  0.36014366  0.22852947  0.02665819     0.11200
C609        C  0.08109375  0.11844368  0.90376757    -0.03400
C610        C  0.06146852  0.12086977  0.91021944    -0.06100
C611        C  0.04899137  0.12361313  0.87840202    -0.21100
C612        C  0.05595020  0.12440247  0.83968167     0.24600
C613        C  0.07546436  0.12117969  0.83316322    -0.18700
C614        C  0.08787410  0.11821415  0.86485412    -0.08700
C615        C  0.04271611  0.12891181  0.80666281    -0.18900
C616        C  0.04830960  0.13943551  0.77551607    -0.23700
C617        C  0.03572711  0.14499175  0.74208445     0.26600
C618        C  0.04124636  0.16052659  0.71869698    -0.20500
C619        C  0.03082357  0.16549253  0.68514539    -0.10200
C620        C  0.01467122  0.15489763  0.67384449    -0.10700
C621        C  0.00884735  0.13957982  0.69765521    -0.03600
C622        C  0.01923223  0.13467059  0.73149315    -0.18700
H623        H  0.05583932  0.12113033  0.93988971     0.10300
H624        H  0.03398561  0.12584518  0.88414459     0.10400
H625        H  0.08120168  0.12109971  0.80358944     0.10100
H626        H  0.10291064  0.11633954  0.85892080     0.11200
H627        H  0.02787906  0.12471175  0.80961068     0.11300
H628        H  0.06277701  0.14503626  0.77517034     0.13200
H629        H  0.05393357  0.16866519  0.72599374     0.09700
H630        H  0.03594306  0.17713780  0.66711606     0.11800
H631        H  0.99641221  0.13119684  0.68981074     0.08400
H632        H  0.01467772  0.12241419  0.74833264     0.11200
C633        C  0.13097773  0.02192384  0.32992234    -0.03400
C634        C  0.11366448  0.01676388  0.31171788    -0.06100
C635        C  0.10876454  0.02404889  0.27470096    -0.21100
C636        C  0.12123938  0.03626625  0.25458280     0.24600
C637        C  0.13884947  0.04095273  0.27204167    -0.18700
C638        C  0.14362372  0.03393100  0.30936924    -0.08700
C639        C  0.11497842  0.04519334  0.21708147    -0.18900
C640        C  0.12705388  0.04881866  0.18725323    -0.23700
C641        C  0.12145089  0.05938351  0.15114504     0.26600
C642        C  0.13071402  0.05536667  0.11556344    -0.20500
C643        C  0.12756779  0.06661061  0.08220721    -0.10200
C644        C  0.11546438  0.08245376  0.08402511    -0.10700
C645        C  0.10570761  0.08615922  0.11927584    -0.03600
C646        C  0.10854538  0.07463532  0.15246986    -0.18700
H647        H  0.10375262  0.00722361  0.32616687     0.10300
H648        H  0.09512711  0.02022667  0.26181509     0.10400
H649        H  0.14857535  0.05071882  0.25764737     0.10100
H650        H  0.15689087  0.03855579  0.32270654     0.11200
H651        H  0.09996649  0.04857763  0.21377291     0.11300
H652        H  0.14162325  0.04371096  0.18914651     0.13200
H653        H  0.14079665  0.04377949  0.11386260     0.09700
H654        H  0.13542677  0.06350133  0.05556855     0.11800
H655        H  0.09642072  0.09836066  0.12159105     0.08400
H656        H  0.10145770  0.07832689  0.17968556     0.11200
C657        C  0.31284872  0.12166402  0.00710189    -0.03400
C658        C  0.30433769  0.11238908  0.03922377    -0.06100
C659        C  0.28451843  0.11025007  0.04097675    -0.21100
C660        C  0.27291282  0.11696621  0.01029888     0.24600
C661        C  0.28146657  0.12621256  0.97808572    -0.18700
C662        C  0.30123525  0.12857917  0.97660019    -0.08700
C663        C  0.25190812  0.11534382  0.01393310    -0.18900
C664        C  0.24014546  0.11424582  0.98258312    -0.23700
C665        C  0.21907294  0.11460711  0.98616801     0.26600
C666        C  0.20778478  0.10619744  0.95663286    -0.20500
C667        C  0.18787769  0.10734930  0.95812405    -0.10200
C668        C  0.17895237  0.11718529  0.98893923    -0.10700
C669        C  0.19024710  0.12559413  0.01845206    -0.03600
C670        C  0.21008176  0.12434664  0.01710304    -0.18700
H671        H  0.31297554  0.10704126  0.06323577     0.10300
H672        H  0.27822189  0.10331314  0.06633312     0.10400
H673        H  0.27291119  0.13209962  0.95453129     0.10100
H674        H  0.30743749  0.13587552  0.95158311     0.11200
H675        H  0.24602664  0.11474601  0.04347078     0.11300
H676        H  0.24610091  0.11285026  0.95322755     0.13200
H677        H  0.21439717  0.09878047  0.93230330     0.09700
H678        H  0.17949450  0.10075069  0.93497589     0.11800
H679        H  0.18375358  0.13335880  0.04244219     0.08400
H680        H  0.21831182  0.13153229  0.03968992     0.11200
C681        C  0.08728116  0.37758106  0.08266525    -0.03400
C682        C  0.06745421  0.37533737  0.07859767    -0.06100
C683        C  0.05580962  0.37349894  0.11193012    -0.21100
C684        C  0.06367420  0.37395028  0.15007032     0.24600
C685        C  0.08354212  0.37638065  0.15402896    -0.18700
C686        C  0.09514962  0.37823869  0.12074823    -0.08700
C687        C  0.05097368  0.37059477  0.18471938    -0.18900
C688        C  0.05557403  0.37576327  0.22188690    -0.23700
C689        C  0.04378623  0.37146806  0.25741928     0.26600
C690        C  0.04770372  0.38149009  0.29234131    -0.20500
C691        C  0.03782953  0.37739375  0.32707059    -0.10200
C692        C  0.02389304  0.36298314  0.32796027    -0.10700
C693        C  0.01995866  0.35281602  0.29322659    -0.03600
C694        C  0.02973717  0.35703948  0.25823848    -0.18700
H695        H  0.06098585  0.37458415  0.04963189     0.10300
H696        H  0.04060936  0.37147300  0.10788474     0.10400
H697        H  0.09035868  0.37617943  0.18262063     0.10100
H698        H  0.11040996  0.37964295  0.12485352     0.11200
H699        H  0.03726917  0.36391121  0.17901329     0.11300
H700        H  0.06852654  0.38392990  0.22683528     0.13200
H701        H  0.05859424  0.39247597  0.29287134     0.09700
H702        H  0.04147519  0.38521918  0.35354963     0.11800
H703        H  0.00929889  0.34161625  0.29314074     0.08400
H704        H  0.02655957  0.34862420  0.23236952     0.11200
C705        C  0.11437842  0.40862585  0.88976585    -0.03400
C706        C  0.11016584  0.40059262  0.85285990    -0.06100
C707        C  0.11103748  0.41164251  0.81867745    -0.21100
C708        C  0.11633272  0.43091237  0.82049110     0.24600
C709        C  0.11962293  0.43920459  0.85770577    -0.18700
C710        C  0.11870082  0.42813352  0.89196549    -0.08700
C711        C  0.11864618  0.44157014  0.78286253    -0.18900
C712        C  0.12962574  0.45728804  0.77909770    -0.23700
C713        C  0.13386816  0.46661650  0.74064002     0.26600
C714        C  0.14989270  0.47861747  0.73799055    -0.20500
C715        C  0.15497591  0.48703402  0.70215054    -0.10200
C716        C  0.14410389  0.48367172  0.66799905    -0.10700
C717        C  0.12780188  0.47200648  0.67084165    -0.03600
C718        C  0.12262943  0.46372913  0.70672613    -0.18700
H719        H  0.10673890  0.38560557  0.85024520     0.10300
H720        H  0.10819377  0.40492250  0.79052735     0.10400
H721        H  0.12306169  0.45414806  0.86061237     0.10100
H722        H  0.12192310  0.43472405  0.92006234     0.11200
H723        H  0.11240183  0.43512098  0.75681163     0.11300
H724        H  0.13713424  0.46277756  0.80468854     0.13200
H725        H  0.15871379  0.48127709  0.76367171     0.09700
H726        H  0.16742410  0.49618709  0.70127414     0.11800
H727        H  0.11920180  0.46878953  0.64516904     0.08400
H728        H  0.10984645  0.45508938  0.70748597     0.11200
C729        C  0.11803811  0.18097444  0.00198803    -0.03400
C730        C  0.11401165  0.19048616  0.03732427    -0.06100
C731        C  0.11382811  0.21039131  0.03853597    -0.21100
C732        C  0.11744828  0.22113466  0.00441862     0.24600
C733        C  0.12162123  0.21153120  0.96914052    -0.18700
C734        C  0.12185070  0.19169368  0.96798036    -0.08700
C735        C  0.11769494  0.24224014  0.00715468    -0.18900
C736        C  0.11555404  0.25382042  0.97577885    -0.23700
C737        C  0.11676349  0.27490384  0.97821434     0.26600
C738        C  0.10862653  0.28587420  0.94798998    -0.20500
C739        C  0.10981559  0.30575023  0.94890046    -0.10200
C740        C  0.11934574  0.31499773  0.97993079    -0.10700
C741        C  0.12775054  0.30404767  0.00979145    -0.03600
C742        C  0.12654144  0.28423506  0.00894068    -0.18700
H743        H  0.11117276  0.18255724  0.06404118     0.10300
H744        H  0.11082794  0.21742803  0.06621233     0.10400
H745        H  0.12517473  0.21918942  0.94251861     0.10100
H746        H  0.12516577  0.18473098  0.94038674     0.11200
H747        H  0.11917365  0.24833452  0.03637198     0.11300
H748        H  0.11221799  0.24776655  0.94716773     0.13200
H749        H  0.10125151  0.27904242  0.92368804     0.09700
H750        H  0.10333346  0.31386187  0.92533646     0.11800
H751        H  0.13535498  0.31080595  0.03387109     0.08400
H752        H  0.13363838  0.27636666  0.03201485     0.11200
C753        C  0.31618253  0.38038722  0.99299835    -0.03400
C754        C  0.30653545  0.36584021  0.01327076    -0.06100
C755        C  0.28668586  0.36473369  0.01248148    -0.21100
C756        C  0.27598524  0.37833031  0.99208261     0.24600
C757        C  0.28555757  0.39302011  0.97188864    -0.18700
C758        C  0.30553749  0.39397128  0.97218829    -0.08700
C759        C  0.25497656  0.37604010  0.99085726    -0.18900
C760        C  0.24277625  0.39069589  0.98852225    -0.23700
C761        C  0.22180625  0.38772390  0.98820469     0.26600
C762        C  0.20989868  0.40112739  0.00622241    -0.20500
C763        C  0.19009286  0.39842812  0.00661816    -0.10200
C764        C  0.18186745  0.38244621  0.98828186    -0.10700
C765        C  0.19377707  0.36923922  0.96962017    -0.03600
C766        C  0.21352468  0.37181838  0.96961475    -0.18700
H767        H  0.31435707  0.35508515  0.02933073     0.10300
H768        H  0.27964169  0.35320827  0.02796356     0.10400
H769        H  0.27767909  0.40344805  0.95508050     0.10100
H770        H  0.31264558  0.40523299  0.95605364     0.11200
H771        H  0.24933591  0.36171701  0.99437878     0.11300
H772        H  0.24820327  0.40519128  0.98919431     0.13200
H773        H  0.21596082  0.41355843  0.02047542     0.09700
H774        H  0.18121911  0.40887981  0.02101639     0.11800
H775        H  0.18782340  0.35685746  0.95500129     0.08400
H776        H  0.22226058  0.36149124  0.95451267     0.11200
C777        C  0.96171507  0.13448189  0.59717179    -0.03400
C778        C  0.94302532  0.14096365  0.60329516    -0.06100
C779        C  0.92776445  0.12805902  0.60590713    -0.21100
C780        C  0.93073393  0.10839917  0.60199351     0.24600
C781        C  0.94947383  0.10191079  0.59614419    -0.18700
C782        C  0.96470371  0.11479148  0.59355743    -0.08700
C783        C  0.91409522  0.09513328  0.60539161    -0.18900
C784        C  0.91378993  0.07749995  0.58959517    -0.23700
C785        C  0.89766163  0.06363728  0.59321082     0.26600
C786        C  0.90123375  0.04448806  0.58425430    -0.20500
C787        C  0.88685412  0.03075192  0.58735819    -0.10200
C788        C  0.86839091  0.03579426  0.59912273    -0.10700
C789        C  0.86453560  0.05499539  0.60717731    -0.03600
C790        C  0.87903040  0.06880207  0.60440911    -0.18700
H791        H  0.94020532  0.15599414  0.60668974     0.10300
H792        H  0.91354126  0.13347441  0.61084143     0.10400
H793        H  0.95257816  0.08689772  0.59414787     0.10100
H794        H  0.97881345  0.10923167  0.58819295     0.11200
H795        H  0.90172797  0.10031735  0.62107833     0.11300
H796        H  0.92614722  0.07265568  0.57336438     0.13200
H797        H  0.91531722  0.04006264  0.57511334     0.09700
H798        H  0.89018482  0.01613512  0.58017880     0.11800
H799        H  0.85041193  0.05926755  0.61630799     0.08400
H800        H  0.87545406  0.08341721  0.61069246     0.11200
C801        C  0.61990580  0.03100044  0.41243548    -0.03400
C802        C  0.62530209  0.05004720  0.40624524    -0.06100
C803        C  0.61175195  0.06457629  0.40771071    -0.21100
C804        C  0.59248182  0.06045758  0.41525608     0.24600
C805        C  0.58715619  0.04138455  0.42211434    -0.18700
C806        C  0.60069859  0.02686513  0.42049978    -0.08700
C807        C  0.57862788  0.07649364  0.41671612    -0.18900
C808        C  0.55955131  0.07422181  0.41387118    -0.23700
C809        C  0.54560780  0.09010695  0.41590916     0.26600
C810        C  0.52667281  0.08579949  0.42591922    -0.20500
C811        C  0.51296027  0.10009529  0.42804855    -0.10200
C812        C  0.51774214  0.11908890  0.41989416    -0.10700
C813        C  0.53665081  0.12342002  0.40921143    -0.03600
C814        C  0.55044235  0.10911073  0.40717834    -0.18700
H815        H  0.63996347  0.05371691  0.39969420     0.10300
H816        H  0.61633514  0.07910548  0.40259763     0.10400
H817        H  0.57268541  0.03750895  0.42955751     0.10100
H818        H  0.59615395  0.01241708  0.42649699     0.11200
H819        H  0.58453998  0.09069265  0.42005051     0.11300
H820        H  0.55358358  0.06006257  0.41054362     0.13200
H821        H  0.52250981  0.07129755  0.43264186     0.09700
H822        H  0.49871803  0.09623617  0.43696400     0.11800
H823        H  0.54076544  0.13784634  0.40185471     0.08400
H824        H  0.56469477  0.11299165  0.39803545     0.11200
C825        C  0.68482287  0.00181524  0.43769946    -0.03400
C826        C  0.70165293  0.99919785  0.41577634    -0.06100
C827        C  0.71961448  0.00073702  0.43366911    -0.21100
C828        C  0.72153175  0.00494806  0.47395446     0.24600
C829        C  0.70478823  0.00802981  0.49585923    -0.18700
C830        C  0.68678342  0.00649125  0.47793792    -0.08700
C831        C  0.74126073  0.00580015  0.49115873    -0.18900
C832        C  0.74547069  0.00818956  0.52977998    -0.23700
C833        C  0.76532338  0.00795410  0.54632224     0.26600
C834        C  0.76776713  0.00484191  0.58687401    -0.20500
C835        C  0.78599928  0.00391896  0.60377840    -0.10200
C836        C  0.80253853  0.00614365  0.58055075    -0.10700
C837        C  0.79998956  0.00997301  0.54011215    -0.03600
C838        C  0.78173372  0.01088982  0.52321824    -0.18700
H839        H  0.70137111  0.99583127  0.38484384     0.10300
H840        H  0.73216166  0.99843046  0.41578067     0.10400
H841        H  0.70531789  0.01158487  0.52678413     0.10100
H842        H  0.67421382  0.00875209  0.49577571     0.11200
H843        H  0.75286694  0.00357182  0.47068199     0.11300
H844        H  0.73399948  0.00946736  0.55088677     0.13200
H845        H  0.75545316  0.00283195  0.60565541     0.09700
H846        H  0.78671632  0.00137652  0.63501449     0.11800
H847        H  0.81228457  0.01207808  0.52133926     0.08400
H848        H  0.78067141  0.01404562  0.49214097     0.11200
C849        C  0.01493573  0.87981669  0.42509201    -0.03400
C850        C  0.03357602  0.87374191  0.41708213    -0.06100
C851        C  0.04857712  0.88691497  0.41465433    -0.21100
C852        C  0.04536755  0.90641102  0.42068353     0.24600
C853        C  0.02661380  0.91248423  0.42820991    -0.18700
C854        C  0.01162505  0.89932340  0.43045812    -0.08700
C855        C  0.06180921  0.91990410  0.41773896    -0.18900
C856        C  0.06186787  0.93754621  0.43344508    -0.23700
C857        C  0.07798617  0.95133647  0.42979365     0.26600
C858        C  0.07418205  0.97076291  0.43491576    -0.20500
C859        C  0.08872705  0.98433906  0.43173488    -0.10200
C860        C  0.10753396  0.97880934  0.42380466    -0.10700
C861        C  0.11151157  0.95934426  0.41953497    -0.03600
C862        C  0.09690235  0.94572814  0.42242489    -0.18700
H863        H  0.03653019  0.85882432  0.41225267     0.10300
H864        H  0.06279221  0.88182868  0.40830446     0.10400
H865        H  0.02327891  0.92736682  0.43182391     0.10100
H866        H  0.99745049  0.90444072  0.43699994     0.11200
H867        H  0.07430326  0.91492954  0.40214754     0.11300
H868        H  0.04941081  0.94248897  0.44917413     0.13200
H869        H  0.05982895  0.97549240  0.44116016     0.09700
H870        H  0.08526148  0.99917284  0.43615262     0.11800
H871        H  0.12588836  0.95465405  0.41350633     0.08400
H872        H  0.10059357  0.93089052  0.41945941     0.11200
C873        C  0.95291232  0.88328053  0.46536888    -0.03400
C874        C  0.94386978  0.89537633  0.43828730    -0.06100
C875        C  0.93122214  0.90935329  0.45117863    -0.21100
C876        C  0.92716462  0.91157531  0.49140759     0.24600
C877        C  0.93655581  0.89969390  0.51865475    -0.18700
C878        C  0.94920488  0.88569122  0.50570886    -0.08700
C879        C  0.91315942  0.92646038  0.50316360    -0.18900
C880        C  0.90565906  0.92814127  0.53952841    -0.23700
C881        C  0.89183007  0.94318143  0.55059473     0.26600
C882        C  0.89125473  0.94917770  0.58995787    -0.20500
C883        C  0.87851934  0.96322178  0.60189190    -0.10200
C884        C  0.86587376  0.97152403  0.57479053    -0.10700
C885        C  0.86601132  0.96517774  0.53553633    -0.03600
C886        C  0.87889960  0.95116097  0.52348126    -0.18700
H887        H  0.94615873  0.89378372  0.40694608     0.10300
H888        H  0.92434100  0.91830175  0.42946448     0.10400
H889        H  0.93444833  0.90111071  0.55000247     0.10100
H890        H  0.95626068  0.87688473  0.52739858     0.11200
H891        H  0.90880586  0.93646161  0.48054447     0.11300
H892        H  0.91007618  0.91862373  0.56285577     0.13200
H893        H  0.90082531  0.94306506  0.61156383     0.09700
H894        H  0.87842082  0.96735022  0.63261485     0.11800
H895        H  0.85635521  0.97123213  0.51405871     0.08400
H896        H  0.87849651  0.94644203  0.49315441     0.11200
C897        C  0.03073346  0.62748496  0.59278455    -0.03400
C898        C  0.04900467  0.63362250  0.60436665    -0.06100
C899        C  0.06434091  0.62095211  0.60472243    -0.21100
C900        C  0.06187637  0.60192231  0.59302386     0.24600
C901        C  0.04351252  0.59579562  0.58147342    -0.18700
C902        C  0.02816718  0.60845216  0.58134822    -0.08700
C903        C  0.07860328  0.58886542  0.59479657    -0.18900
C904        C  0.07953859  0.57225180  0.57497582    -0.23700
C905        C  0.09575471  0.55860992  0.57717013     0.26600
C906        C  0.09277303  0.54014893  0.56256006    -0.20500
C907        C  0.10727798  0.52665124  0.56377759    -0.10200
C908        C  0.12522824  0.53122616  0.57946533    -0.10700
C909        C  0.12852787  0.54977719  0.59333272    -0.03600
C910        C  0.11392593  0.56336136  0.59234465    -0.18700
H911        H  0.05137596  0.64815766  0.61381278     0.10300
H912        H  0.07821868  0.62605808  0.61416242     0.10400
H913        H  0.04071079  0.58119386  0.57328282     0.10100
H914        H  0.01428597  0.60334858  0.57196246     0.11200
H915        H  0.09050350  0.59332075  0.61308089     0.11300
H916        H  0.06768691  0.56807681  0.55627001     0.13200
H917        H  0.07907513  0.53607726  0.55026980     0.09700
H918        H  0.10449704  0.51266205  0.55188890     0.11800
H919        H  0.14228721  0.55365873  0.60554891     0.08400
H920        H  0.11708431  0.57749228  0.60311817     0.11200
C921        C  0.99698045  0.69121494  0.56788854    -0.03400
C922        C  0.01365045  0.70079917  0.55559659    -0.06100
C923        C  0.01298557  0.71968009  0.54263039    -0.21100
C924        C  0.99576101  0.72975056  0.54141781     0.24600
C925        C  0.97911800  0.72046158  0.55462324    -0.18700
C926        C  0.97977046  0.70151457  0.56758215    -0.08700
C927        C  0.99617500  0.74975849  0.52617552    -0.18900
C928        C  0.98068702  0.76060934  0.51892178    -0.23700
C929        C  0.98162715  0.78028868  0.50199561     0.26600
C930        C  0.96505162  0.78820226  0.48566540    -0.20500
C931        C  0.96530751  0.80643854  0.46899956    -0.10200
C932        C  0.98217189  0.81742538  0.46796039    -0.10700
C933        C  0.99868115  0.80961605  0.48529815    -0.03600
C934        C  0.99838524  0.79141796  0.50216635    -0.18700
H935        H  0.02739707  0.69407899  0.55562363     0.10300
H936        H  0.02611701  0.72643145  0.53314746     0.10400
H937        H  0.96553386  0.72760595  0.55518695     0.10100
H938        H  0.96668001  0.69476680  0.57727843     0.11200
H939        H  0.01014468  0.75542050  0.51906739     0.11300
H940        H  0.96658402  0.75472575  0.52377031     0.13200
H941        H  0.95183172  0.78016399  0.48544035     0.09700
H942        H  0.95224939  0.81197392  0.45646672     0.11800
H943        H  0.01197649  0.81731411  0.48655677     0.08400
H944        H  0.01135075  0.78636084  0.51573365     0.11200
C945        C  0.46474051  0.88548408  0.58633237    -0.03400
C946        C  0.46930600  0.90488652  0.58310768    -0.06100
C947        C  0.45517407  0.91873424  0.58552703    -0.21100
C948        C  0.43598658  0.91363318  0.59070745     0.24600
C949        C  0.43125889  0.89419131  0.59380417    -0.18700
C950        C  0.44549584  0.88029022  0.59161157    -0.08700
C951        C  0.42171058  0.92918579  0.59363379    -0.18900
C952        C  0.40277596  0.92696815  0.58802972    -0.23700
C953        C  0.38904180  0.94308005  0.58970877     0.26600
C954        C  0.36970219  0.93922999  0.59709670    -0.20500
C955        C  0.35636362  0.95398286  0.59847217    -0.10200
C956        C  0.36208288  0.97294313  0.59226649    -0.10700
C957        C  0.38135881  0.97675886  0.58424276    -0.03600
C958        C  0.39465986  0.96204937  0.58279162    -0.18700
H959        H  0.48376952  0.90949808  0.57805079     0.10300
H960        H  0.45927134  0.93356418  0.58295931     0.10400
H961        H  0.41673334  0.88960390  0.59879086     0.10100
H962        H  0.44144357  0.86549880  0.59485364     0.11200
H963        H  0.42733364  0.94324062  0.60013981     0.11300
H964        H  0.39694389  0.91293393  0.58216832     0.13200
H965        H  0.36491644  0.92475888  0.60211696     0.09700
H966        H  0.34162090  0.95055831  0.60479787     0.11800
H967        H  0.38615072  0.99110032  0.57797384     0.08400
H968        H  0.40919556  0.96565249  0.57522707     0.11200
C969        C  0.62193686  0.96656769  0.44322317    -0.03400
C970        C  0.61139462  0.95575661  0.41597076    -0.06100
C971        C  0.59915241  0.94130804  0.42880717    -0.21100
C972        C  0.59686410  0.93767762  0.46914443     0.24600
C973        C  0.60759921  0.94836795  0.49649020    -0.18700
C974        C  0.62012129  0.96262037  0.48357083    -0.08700
C975        C  0.58322877  0.92263011  0.48159173    -0.18900
C976        C  0.57313919  0.92377488  0.51513459    -0.23700
C977        C  0.55801771  0.90988170  0.52579669     0.26600
C978        C  0.54236064  0.91625546  0.54744441    -0.20500
C979        C  0.52776389  0.90373270  0.55810456    -0.10200
C980        C  0.52856293  0.88431474  0.54812214    -0.10700
C981        C  0.54450346  0.87789556  0.52675235    -0.03600
C982        C  0.55901336  0.89054271  0.51555584    -0.18700
H983        H  0.61281974  0.95830918  0.38464467     0.10300
H984        H  0.59119172  0.93314711  0.40718685     0.10400
H985        H  0.60651119  0.94560347  0.52776892     0.10100
H986        H  0.62818460  0.97073903  0.50508234     0.11200
H987        H  0.58016578  0.91122535  0.46088998     0.11300
H988        H  0.57478661  0.93622899  0.53380631     0.13200
H989        H  0.54128853  0.93109052  0.55576745     0.09700
H990        H  0.51593149  0.90955341  0.57411554     0.11800
H991        H  0.54614052  0.86303333  0.51941339     0.08400
H992        H  0.57119885  0.88506765  0.49977619     0.11200
C993        C  0.37531485  0.53794622  0.39943680    -0.03400
C994        C  0.36842739  0.55672041  0.39738068    -0.06100
C995        C  0.38104673  0.57228188  0.39574249    -0.27500
C996        C  0.40089235  0.56958701  0.39627153     0.24600
C997        C  0.40774422  0.55080314  0.39738043    -0.18700
C998        C  0.39516717  0.53532526  0.39911492    -0.08700
C999        C  0.41391478  0.58656384  0.39452872    -0.18900
C1000       C  0.43255207  0.58597624  0.40475672    -0.23700
C1001       C  0.44636776  0.60223937  0.40276026     0.26600
C1002       C  0.46579700  0.59814945  0.40782488    -0.20500
C1003       C  0.47956147  0.61256554  0.40722381    -0.10200
C1004       C  0.47436405  0.63162402  0.40154926    -0.10700
C1005       C  0.45490705  0.63589858  0.39670450    -0.03600
C1006       C  0.44103030  0.62137133  0.39718897    -0.18700
H1007       H  0.35327519  0.55947681  0.39655222     0.10300
H1008       H  0.37525409  0.58651329  0.39422542     0.10400
H1009       H  0.42280926  0.54776462  0.39630263     0.10100
H1010       H  0.40124958  0.52133357  0.40052904     0.11200
H1011       H  0.40775509  0.59987739  0.38485151     0.11300
H1012       H  0.43838233  0.57269649  0.41539729     0.13200
H1013       H  0.47041341  0.58364236  0.41251296     0.09700
H1014       H  0.49429355  0.60872670  0.41218557     0.11800
H1015       H  0.45041898  0.65045175  0.39227197     0.08400
H1016       H  0.42625013  0.62529783  0.39373782     0.11200
C1017       C  0.49398189  0.82064657  0.55035379    -0.03400
C1018       C  0.47692134  0.81281421  0.53517379    -0.06100
C1019       C  0.47648046  0.79438230  0.51950351    -0.21100
C1020       C  0.49295674  0.78314035  0.51834125     0.24600
C1021       C  0.50996278  0.79077290  0.53401272    -0.18700
C1022       C  0.51043180  0.80922859  0.54953637    -0.08700
C1023       C  0.49150825  0.76356338  0.50116701    -0.18900
C1024       C  0.50662105  0.75271891  0.49131565    -0.23700
C1025       C  0.50528530  0.73335571  0.47310134     0.26600
C1026       C  0.52194420  0.72529655  0.45771935    -0.20500
C1027       C  0.52163455  0.70724879  0.44042421    -0.10200
C1028       C  0.50467524  0.69646210  0.43816552    -0.10700
C1029       C  0.48793496  0.70453283  0.45371349    -0.03600
C1030       C  0.48824907  0.72266360  0.47104759    -0.18700
H1031       H  0.46373923  0.82058421  0.53504223     0.10300
H1032       H  0.46311250  0.78889730  0.50801712     0.10400
H1033       H  0.52295499  0.78261661  0.53496374     0.10100
H1034       H  0.52378372  0.81465481  0.56120534     0.11200
H1035       H  0.47724420  0.75834174  0.49509750     0.11300
H1036       H  0.52087288  0.75843459  0.49523202     0.13200
H1037       H  0.53533372  0.73303317  0.45894386     0.09700
H1038       H  0.53481336  0.70157716  0.42885468     0.11800
H1039       H  0.47446756  0.69709780  0.45291959     0.08400
H1040       H  0.47509094  0.72798851  0.48313615     0.11200
C1041       C  0.97212231  0.38405678  0.40488443    -0.03400
C1042       C  0.97213386  0.39796793  0.37518311    -0.06100
C1043       C  0.95804810  0.41197891  0.37411693    -0.21100
C1044       C  0.94351102  0.41236717  0.40247264     0.24600
C1045       C  0.94345747  0.39843665  0.43224621    -0.18700
C1046       C  0.95758838  0.38443589  0.43336379    -0.08700
C1047       C  0.92942717  0.42814878  0.40128190    -0.18900
C1048       C  0.91198091  0.42732801  0.41788681    -0.23700
C1049       C  0.89851152  0.44363740  0.41714794     0.26600
C1050       C  0.87878799  0.44019224  0.41779372    -0.20500
C1051       C  0.86584060  0.45531942  0.41724906    -0.10200
C1052       C  0.87233025  0.47433968  0.41699012    -0.10700
C1053       C  0.89214776  0.47766554  0.41756293    -0.03600
C1054       C  0.90503658  0.46256646  0.41736900    -0.18700
H1055       H  0.98295298  0.39798566  0.35250734     0.10300
H1056       H  0.95851333  0.42258382  0.35098385     0.10400
H1057       H  0.93289212  0.39860181  0.45539209     0.10100
H1058       H  0.95741605  0.37421869  0.45721322     0.11200
H1059       H  0.93345131  0.44079090  0.38483765     0.11300
H1060       H  0.90703314  0.41413492  0.43104847     0.13200
H1061       H  0.87337208  0.42573344  0.41812040     0.09700
H1062       H  0.85077254  0.45199891  0.41662324     0.11800
H1063       H  0.89792494  0.49191759  0.41920416     0.08400
H1064       H  0.92013066  0.46579599  0.41850682     0.11200
C1065       C  0.87556112  0.53649225  0.45739988    -0.03400
C1066       C  0.87561055  0.54055886  0.49794006    -0.06100
C1067       C  0.88932176  0.55276431  0.51424465    -0.21100
C1068       C  0.90342175  0.56126717  0.49065156     0.24600
C1069       C  0.90357502  0.55698565  0.45007441    -0.18700
C1070       C  0.88976308  0.54481431  0.43370852    -0.08700
C1071       C  0.91760142  0.57420105  0.51009990    -0.18900
C1072       C  0.93026090  0.58543015  0.49101454    -0.23700
C1073       C  0.94375809  0.59868287  0.51153776     0.26600
C1074       C  0.95162583  0.61398318  0.49041080    -0.20500
C1075       C  0.96395193  0.62702401  0.50873464    -0.10200
C1076       C  0.96881549  0.62511325  0.54883283    -0.10700
C1077       C  0.96141381  0.60942135  0.56955897    -0.03600
C1078       C  0.94914535  0.59634758  0.55122420    -0.18700
H1079       H  0.86517043  0.53414268  0.51731669     0.10300
H1080       H  0.88887396  0.55558597  0.54560560     0.10400
H1081       H  0.91426752  0.56285305  0.43066478     0.10100
H1082       H  0.89007321  0.54224015  0.40229240     0.11200
H1083       H  0.91691470  0.57497644  0.54196386     0.11300
H1084       H  0.93024417  0.58581829  0.45911275     0.13200
H1085       H  0.94805617  0.61599666  0.45962839     0.09700
H1086       H  0.96973992  0.63852302  0.49121536     0.11800
H1087       H  0.96474005  0.60727267  0.60023973     0.08400
H1088       H  0.94407961  0.58440296  0.56836680     0.11200
C1089       C  0.61787648  0.47690045  0.57933328    -0.03400
C1090       C  0.59885254  0.48208733  0.57271680    -0.06100
C1091       C  0.58442600  0.46835235  0.57163865    -0.21100
C1092       C  0.58851746  0.44899443  0.57707891     0.24600
C1093       C  0.60766487  0.44369129  0.58330699    -0.18700
C1094       C  0.62217633  0.45753125  0.58432347    -0.08700
C1095       C  0.57215399  0.43529160  0.57631084    -0.18900
C1096       C  0.57345359  0.41617273  0.57914529    -0.23700
C1097       C  0.55655013  0.40308493  0.57813552     0.26600
C1098       C  0.55877636  0.38411826  0.59040137    -0.20500
C1099       C  0.54337714  0.37132009  0.58947362    -0.10200
C1100       C  0.52533603  0.37721547  0.57630119    -0.10700
C1101       C  0.52312119  0.39608221  0.56385651    -0.03600
C1102       C  0.53848351  0.40882344  0.56441233    -0.18700
H1103       H  0.59506454  0.49679393  0.56769436     0.10300
H1104       H  0.56991489  0.47294235  0.56644845     0.10400
H1105       H  0.61162289  0.42902898  0.58776292     0.10100
H1106       H  0.63671748  0.45310888  0.58966028     0.11200
H1107       H  0.55818068  0.44164883  0.57382863     0.11300
H1108       H  0.58728173  0.40965116  0.58305162     0.13200
H1109       H  0.57248399  0.37918086  0.60087661     0.09700
H1110       H  0.54554096  0.35686948  0.59948289     0.11800
H1111       H  0.50962171  0.40091901  0.55250140     0.08400
H1112       H  0.53603599  0.42295638  0.55312656     0.11200
C1113       C  0.53689997  0.63240818  0.43731035    -0.03400
C1114       C  0.54665236  0.62115551  0.40986211    -0.06100
C1115       C  0.56000018  0.60777279  0.42238428    -0.21100
C1116       C  0.56392282  0.60523164  0.46262511     0.24600
C1117       C  0.55442763  0.61682608  0.49013386    -0.18700
C1118       C  0.54103572  0.63021702  0.47754695    -0.08700
C1119       C  0.57818486  0.59056677  0.47407494    -0.18900
C1120       C  0.58039728  0.58379508  0.51100671    -0.23700
C1121       C  0.59422983  0.56870366  0.52260957     0.26600
C1122       C  0.59494580  0.56320981  0.56238942    -0.20500
C1123       C  0.60753941  0.54914397  0.57514914    -0.10200
C1124       C  0.61975806  0.54013879  0.54837977    -0.10700
C1125       C  0.61904147  0.54549882  0.50853765    -0.03600
C1126       C  0.60649416  0.55961458  0.49574794    -0.18700
H1127       H  0.54420315  0.62285306  0.37856148     0.10300
H1128       H  0.56724843  0.59929265  0.40044118     0.10400
H1129       H  0.55731017  0.61587227  0.52133247     0.10100
H1130       H  0.53375612  0.63870819  0.49939309     0.11200
H1131       H  0.58669667  0.58486307  0.45036562     0.11300
H1132       H  0.57137891  0.58918475  0.53428246     0.13200
H1133       H  0.58577392  0.56992149  0.58386809     0.09700
H1134       H  0.60794776  0.54565917  0.60619258     0.11800
H1135       H  0.62807018  0.53864146  0.48703110     0.08400
H1136       H  0.60659925  0.56311039  0.46481316     0.11200
C1137       C  0.80878264  0.50608127  0.44530244    -0.03400
C1138       C  0.79565439  0.49590385  0.42170879    -0.06100
C1139       C  0.77644056  0.49425129  0.43247985    -0.21100
C1140       C  0.76989329  0.50205196  0.46794044     0.24600
C1141       C  0.78298613  0.51159807  0.49241577    -0.18700
C1142       C  0.80213354  0.51359195  0.48132557    -0.08700
C1143       C  0.74919170  0.50112685  0.47753046    -0.18900
C1144       C  0.74253854  0.49968010  0.51467848    -0.23700
C1145       C  0.72187262  0.50033546  0.52471886     0.26600
C1146       C  0.71521062  0.49088842  0.55843974    -0.20500
C1147       C  0.69620253  0.49271397  0.57051481    -0.10200
C1148       C  0.68343990  0.50456999  0.54998819    -0.10700
C1149       C  0.69007804  0.51338068  0.51514628    -0.03600
C1150       C  0.70899663  0.51135683  0.50287047    -0.18700
H1151       H  0.80022323  0.48955570  0.39426107     0.10300
H1152       H  0.76664907  0.48682004  0.41304286     0.10400
H1153       H  0.77835023  0.51799642  0.51975229     0.10100
H1154       H  0.81146643  0.52092281  0.50157292     0.11200
H1155       H  0.73917485  0.50119420  0.45307789     0.11300
H1156       H  0.75258259  0.49769351  0.53872228     0.13200
H1157       H  0.72480877  0.48221659  0.57575923     0.09700
H1158       H  0.69158857  0.48531400  0.59682555     0.11800
H1159       H  0.68099156  0.52193477  0.49679095     0.08400
H1160       H  0.71365085  0.51899609  0.47690594     0.11200
C1161       C  0.58914181  0.62345195  0.08686066    -0.03400
C1162       C  0.56927261  0.62125187  0.08398984    -0.06100
C1163       C  0.55774059  0.62355728  0.11724558    -0.21100
C1164       C  0.56579514  0.62846849  0.15380129     0.24600
C1165       C  0.58577005  0.62981216  0.15699646    -0.18700
C1166       C  0.59730241  0.62730858  0.12386215    -0.08700
C1167       C  0.55302507  0.63210828  0.18791894    -0.18900
C1168       C  0.55761184  0.64437437  0.21706594    -0.23700
C1169       C  0.54519608  0.64872103  0.25148432     0.26600
C1170       C  0.54951145  0.66482031  0.27441698    -0.20500
C1171       C  0.53914736  0.66888544  0.30850937    -0.10200
C1172       C  0.52422718  0.65685343  0.32070952    -0.10700
C1173       C  0.51958845  0.64097269  0.29735796    -0.03600
C1174       C  0.52995094  0.63690103  0.26318238    -0.18700
H1175       H  0.56260533  0.61823668  0.05584365     0.10300
H1176       H  0.54242442  0.62215310  0.11411530     0.10400
H1177       H  0.59254295  0.63288565  0.18497499     0.10100
H1178       H  0.61258691  0.62902565  0.12697620     0.11200
H1179       H  0.53906029  0.62542660  0.18739017     0.11300
H1180       H  0.57095519  0.65221797  0.21510460     0.13200
H1181       H  0.56122501  0.67412852  0.26634168     0.09700
H1182       H  0.54337784  0.68102672  0.32616156     0.11800
H1183       H  0.50809373  0.63149087  0.30579140     0.08400
H1184       H  0.52629005  0.62417238  0.24693252     0.11200
C1185       C  0.61308141  0.59065524  0.89740402    -0.03400
C1186       C  0.60279572  0.59557886  0.86337273    -0.06100
C1187       C  0.60293618  0.58370767  0.83022844    -0.21100
C1188       C  0.61380287  0.56700504  0.83011364     0.24600
C1189       C  0.62336379  0.56162232  0.86479171    -0.18700
C1190       C  0.62288456  0.57327893  0.89821286    -0.08700
C1191       C  0.61563854  0.55592254  0.79304297    -0.18900
C1192       C  0.63238466  0.54834798  0.78188928    -0.23700
C1193       C  0.63547553  0.53945229  0.74273677     0.26600
C1194       C  0.65332959  0.54145196  0.72473895    -0.20500
C1195       C  0.65670439  0.53375564  0.68743247    -0.10200
C1196       C  0.64242322  0.52334537  0.66746221    -0.10700
C1197       C  0.62472857  0.52074730  0.68642748    -0.03600
C1198       C  0.62122284  0.52887488  0.72339700    -0.18700
H1199       H  0.59503148  0.60883648  0.86205933     0.10300
H1200       H  0.59528907  0.58803481  0.80398173     0.10400
H1201       H  0.63147069  0.54856995  0.86585345     0.10100
H1202       H  0.63089439  0.56910397  0.92409561     0.11200
H1203       H  0.60367571  0.55583958  0.77265360     0.11300
H1204       H  0.64482015  0.55036106  0.80062496     0.13200
H1205       H  0.66458230  0.54947791  0.73916004     0.09700
H1206       H  0.67042133  0.53647566  0.67409494     0.11800
H1207       H  0.61350622  0.51232413  0.67314074     0.08400
H1208       H  0.60747086  0.52661341  0.73707712     0.11200
C1209       C  0.61929824  0.91940227  0.08209918    -0.03400
C1210       C  0.63092413  0.93572034  0.08003685    -0.06100
C1211       C  0.63452978  0.94668093  0.11363189    -0.21100
C1212       C  0.62616243  0.94195598  0.14980393     0.24600
C1213       C  0.61369927  0.92622136  0.15160435    -0.18700
C1214       C  0.61045689  0.91491762  0.11808713    -0.08700
C1215       C  0.63231384  0.95243364  0.18570582    -0.18900
C1216       C  0.62056276  0.95665060  0.21569051    -0.23700
C1217       C  0.62744599  0.96647057  0.25190170     0.26600
C1218       C  0.61576954  0.97977814  0.27076625    -0.20500
C1219       C  0.62165193  0.98845878  0.30596477    -0.10200
C1220       C  0.63916995  0.98367189  0.32360368    -0.10700
C1221       C  0.65089967  0.97041750  0.30441740    -0.03600
C1222       C  0.64515037  0.96198798  0.26892794    -0.18700
H1223       H  0.63811775  0.93944249  0.05289328     0.10300
H1224       H  0.64426780  0.95865334  0.11158418     0.10400
H1225       H  0.60731164  0.92205549  0.17931692     0.10100
H1226       H  0.60159428  0.90231976  0.12063861     0.11200
H1227       H  0.64700175  0.95741403  0.18684045     0.11300
H1228       H  0.60544328  0.95343704  0.21307507     0.13200
H1229       H  0.60207513  0.98348118  0.25818744     0.09700
H1230       H  0.61237549  0.99883448  0.31941956     0.11800
H1231       H  0.66423583  0.96597079  0.31748739     0.08400
H1232       H  0.65426437  0.95142570  0.25556943     0.11200
C1233       C  0.51528838  0.86147856  0.66511597    -0.03400
C1234       C  0.51271623  0.84896808  0.69693598    -0.06100
C1235       C  0.52241057  0.85199126  0.73255938    -0.21100
C1236       C  0.53496357  0.86751285  0.73724907     0.24600
C1237       C  0.53737946  0.88011120  0.70538867    -0.18700
C1238       C  0.52778767  0.87702521  0.66980496    -0.08700
C1239       C  0.54491142  0.87008632  0.77590002    -0.18900
C1240       C  0.55965765  0.88219609  0.78211826    -0.23700
C1241       C  0.56984272  0.88423635  0.82056590     0.26600
C1242       C  0.58823749  0.89227817  0.82087486    -0.20500
C1243       C  0.59869551  0.89370901  0.85595447    -0.10200
C1244       C  0.59088463  0.88733791  0.89167877    -0.10700
C1245       C  0.57219122  0.88005975  0.89176113    -0.03600
C1246       C  0.56175253  0.87855119  0.85666598    -0.18700
H1247       H  0.50311169  0.83692020  0.69443311     0.10300
H1248       H  0.52012566  0.84209389  0.75656174     0.10400
H1249       H  0.54652269  0.89247461  0.70747525     0.10100
H1250       H  0.53053174  0.88672404  0.64571051     0.11200
H1251       H  0.54023698  0.86095451  0.79976672     0.11300
H1252       H  0.56537304  0.89033735  0.75773750     0.13200
H1253       H  0.59475224  0.89704038  0.79368000     0.09700
H1254       H  0.61305929  0.89941686  0.85496964     0.11800
H1255       H  0.56577974  0.87507207  0.91887590     0.08400
H1256       H  0.54740079  0.87293103  0.85816050     0.11200
C1257       C  0.62249604  0.82191726  0.99091619    -0.03400
C1258       C  0.63729007  0.81212499  0.97206237    -0.06100
C1259       C  0.63742484  0.79230148  0.97112577    -0.21100
C1260       C  0.62261755  0.78175815  0.98833600     0.24600
C1261       C  0.60771486  0.79149557  0.00724096    -0.18700
C1262       C  0.60772804  0.81144933  0.00869149    -0.08700
C1263       C  0.62396734  0.76070243  0.98773624    -0.18900
C1264       C  0.60887498  0.74880214  0.98922904    -0.23700
C1265       C  0.61123237  0.72780215  0.98820386     0.26600
C1266       C  0.59721946  0.71631294  0.97034780    -0.20500
C1267       C  0.59946475  0.69652055  0.96846368    -0.10200
C1268       C  0.61561832  0.68789882  0.98508392    -0.10700
C1269       C  0.62938409  0.69937417  0.00371736    -0.03600
C1270       C  0.62723291  0.71907125  0.00529298    -0.18700
H1271       H  0.64893389  0.81980714  0.95832662     0.10300
H1272       H  0.64915338  0.78515605  0.95674079     0.10400
H1273       H  0.59631836  0.78376885  0.02165038     0.10100
H1274       H  0.59619754  0.81867873  0.02352887     0.11200
H1275       H  0.63810682  0.75477454  0.98381897     0.11300
H1276       H  0.59451733  0.75449465  0.98904340     0.13200
H1277       H  0.58466242  0.72269164  0.95737596     0.09700
H1278       H  0.58852533  0.68796651  0.95435338     0.11800
H1279       H  0.64186909  0.69311071  0.01722181     0.08400
H1280       H  0.63800215  0.72739708  0.02046298     0.11200
C1281       C  0.88477895  0.91348877  0.90749398    -0.03400
C1282       C  0.88674830  0.90527844  0.87001890    -0.06100
C1283       C  0.88343979  0.91602519  0.83608963    -0.21100
C1284       C  0.87835849  0.93525759  0.83880094     0.24600
C1285       C  0.87765278  0.94383268  0.87625889    -0.18700
C1286       C  0.88081681  0.93301257  0.91028910    -0.08700
C1287       C  0.87182030  0.94513955  0.80252582    -0.18900
C1288       C  0.87145559  0.96416150  0.79811133    -0.23700
C1289       C  0.86356797  0.97316899  0.76208581     0.26600
C1290       C  0.87240112  0.98944236  0.74651113    -0.20500
C1291       C  0.86561094  0.99765854  0.71166851    -0.10200
C1292       C  0.84953397  0.99005647  0.69242863    -0.10700
C1293       C  0.84019044  0.97426249  0.70896387    -0.03600
C1294       C  0.84718932  0.96583400  0.74335964    -0.18700
H1295       H  0.88973472  0.89025587  0.86691112     0.10300
H1296       H  0.88409653  0.90907736  0.80763512     0.10400
H1297       H  0.87350515  0.95853594  0.87962198     0.10100
H1298       H  0.87911809  0.93968620  0.93881444     0.11200
H1299       H  0.86710081  0.93624799  0.77813657     0.11300
H1300       H  0.87780730  0.97332270  0.82034591     0.13200
H1301       H  0.88490509  0.99545532  0.76069385     0.09700
H1302       H  0.87302120  0.00986928  0.69954087     0.11800
H1303       H  0.82789933  0.96798743  0.69449213     0.08400
H1304       H  0.83980460  0.95356232  0.75526682     0.11200
C1305       C  0.91108717  0.88474152  0.09947135    -0.03400
C1306       C  0.93063626  0.88058343  0.09732656    -0.06100
C1307       C  0.94138468  0.87810308  0.13178319    -0.21100
C1308       C  0.93272375  0.87941690  0.16892193     0.24600
C1309       C  0.91339379  0.88453469  0.17101289    -0.18700
C1310       C  0.90271284  0.88718472  0.13665329    -0.08700
C1311       C  0.94406449  0.87539577  0.20502614    -0.18900
C1312       C  0.93623648  0.86735270  0.23725807    -0.23700
C1313       C  0.94687341  0.86316836  0.27420027     0.26600
C1314       C  0.93947372  0.84938889  0.29999848    -0.20500
C1315       C  0.94825057  0.84582921  0.33625557    -0.10200
C1316       C  0.96446498  0.85622531  0.34783045    -0.10700
C1317       C  0.97198265  0.86995348  0.32205918    -0.03600
C1318       C  0.96334900  0.87334643  0.28547879    -0.18700
H1319       H  0.93746975  0.87861980  0.06905430     0.10300
H1320       H  0.95631934  0.87444393  0.12941523     0.10400
H1321       H  0.90644061  0.88634410  0.19918353     0.10100
H1322       H  0.88770309  0.89047907  0.13924025     0.11200
H1323       H  0.95930826  0.87807690  0.20405622     0.11300
H1324       H  0.92136193  0.86298661  0.23621211     0.13200
H1325       H  0.92669967  0.84148674  0.29225586     0.09700
H1326       H  0.94195681  0.83540125  0.35584783     0.11800
H1327       H  0.98447363  0.87816348  0.33034160     0.08400
H1328       H  0.96923607  0.88437036  0.26683645     0.11200
C1329       C  0.68335811  0.88464203  0.00024072    -0.03400
C1330       C  0.69249369  0.87569386  0.03203261    -0.06100
C1331       C  0.71227037  0.87670224  0.03615109    -0.21100
C1332       C  0.72336418  0.88649267  0.00841008     0.24600
C1333       C  0.71421959  0.89567803  0.97675804    -0.18700
C1334       C  0.69437337  0.89471757  0.97270293    -0.08700
C1335       C  0.74435882  0.88693718  0.01378404    -0.18900
C1336       C  0.75660609  0.88832203  0.98350102    -0.23700
C1337       C  0.77756815  0.88697228  0.98848832     0.26600
C1338       C  0.78836251  0.87961405  0.95738212    -0.20500
C1339       C  0.80809319  0.87781213  0.96093456    -0.10200
C1340       C  0.81750585  0.88367406  0.99545784    -0.10700
C1341       C  0.80680517  0.89139049  0.02642899    -0.03600
C1342       C  0.78697766  0.89299089  0.02305256    -0.18700
H1343       H  0.68435004  0.86785454  0.05376223     0.10300
H1344       H  0.71895896  0.86959266  0.06085457     0.10400
H1345       H  0.72228940  0.90381684  0.95543424     0.10100
H1346       H  0.68765082  0.90189572  0.94814148     0.11200
H1347       H  0.74984767  0.88445657  0.04327150     0.11300
H1348       H  0.75110645  0.88885440  0.95359285     0.13200
H1349       H  0.78146443  0.87499453  0.93040562     0.09700
H1350       H  0.81600817  0.87190956  0.93650118     0.11800
H1351       H  0.81374825  0.89610125  0.05327307     0.08400
H1352       H  0.77913023  0.89918337  0.04722806     0.11200
C1353       C  0.90978343  0.61596422  0.90479613    -0.03400
C1354       C  0.90196361  0.61090920  0.86810077    -0.06100
C1355       C  0.91299572  0.61184403  0.83390135    -0.21100
C1356       C  0.93203096  0.61808048  0.83539845     0.24600
C1357       C  0.94016594  0.62231996  0.87237694    -0.18700
C1358       C  0.92912727  0.62125575  0.90673647    -0.08700
C1359       C  0.94267798  0.62010748  0.79767783    -0.18900
C1360       C  0.95724809  0.63245135  0.79229496    -0.23700
C1361       C  0.96619831  0.63598295  0.75310938     0.26600
C1362       C  0.97501211  0.65359819  0.74592259    -0.20500
C1363       C  0.98257134  0.65787770  0.70880080    -0.10200
C1364       C  0.98151303  0.64462405  0.67765808    -0.10700
C1365       C  0.97349956  0.62663810  0.68562778    -0.03600
C1366       C  0.96600686  0.62234186  0.72279217    -0.18700
H1367       H  0.88710299  0.60681089  0.86559886     0.10300
H1368       H  0.90641002  0.60830715  0.80591807     0.10400
H1369       H  0.95495698  0.62660135  0.87487377     0.10100
H1370       H  0.93555391  0.62520261  0.93462704     0.11200
H1371       H  0.93704925  0.61237358  0.77250432     0.11300
H1372       H  0.96170314  0.64152125  0.81654939     0.13200
H1373       H  0.97571521  0.66427373  0.76890960     0.09700
H1374       H  0.98921993  0.67164605  0.70476108     0.11800
H1375       H  0.97250246  0.61586486  0.66314818     0.08400
H1376       H  0.96004681  0.60830923  0.72751144     0.11200
C1377       C  0.87722947  0.59538215  0.10133973    -0.03400
C1378       C  0.87951158  0.60510921  0.13722108    -0.06100
C1379       C  0.87640246  0.59583120  0.17309154    -0.21100
C1380       C  0.87122155  0.57653269  0.17412202     0.24600
C1381       C  0.86946817  0.56657004  0.13827786    -0.18700
C1382       C  0.87238230  0.57594166  0.10223141    -0.08700
C1383       C  0.86634019  0.56781433  0.21283042    -0.18900
C1384       C  0.86807763  0.54914752  0.22104361    -0.23700
C1385       C  0.86288060  0.54102786  0.26012900     0.26600
C1386       C  0.87337419  0.52577942  0.27551707    -0.20500
C1387       C  0.86878396  0.51795443  0.31229685    -0.10200
C1388       C  0.85332453  0.52495971  0.33410756    -0.10700
C1389       C  0.84256177  0.53995989  0.31825821    -0.03600
C1390       C  0.84730714  0.54793921  0.28177156    -0.18700
H1391       H  0.88305780  0.62011992  0.13757873     0.10300
H1392       H  0.87774746  0.60386858  0.20020206     0.10400
H1393       H  0.86506873  0.55179439  0.13790767     0.10100
H1394       H  0.87025147  0.56813429  0.07505563     0.11200
H1395       H  0.86180443  0.57738337  0.23609304     0.11300
H1396       H  0.87439495  0.53972171  0.19941964     0.13200
H1397       H  0.88531812  0.52007699  0.25925591     0.09700
H1398       H  0.87721075  0.50626194  0.32341700     0.11800
H1399       H  0.83066979  0.54581464  0.33440851     0.08400
H1400       H  0.83863526  0.55937924  0.27034065     0.11200
C1401       C  0.87973643  0.81914295  0.00446687    -0.03400
C1402       C  0.87022012  0.80900937  0.03420393    -0.06100
C1403       C  0.87126063  0.78920917  0.03587081    -0.21100
C1404       C  0.88165430  0.77905098  0.00767047     0.24600
C1405       C  0.89124771  0.78918575  0.97783192    -0.18700
C1406       C  0.89026947  0.80906932  0.97627275    -0.08700
C1407       C  0.88248343  0.75800704  0.01124344    -0.18900
C1408       C  0.88560638  0.74626417  0.98063209    -0.23700
C1409       C  0.88484083  0.72521412  0.98440779     0.26600
C1410       C  0.87909193  0.71436598  0.95175319    -0.20500
C1411       C  0.87736942  0.69460277  0.95460712    -0.10200
C1412       C  0.88172918  0.68523220  0.99001221    -0.10700
C1413       C  0.88815341  0.69596865  0.02234901    -0.03600
C1414       C  0.88966020  0.71579096  0.01964455    -0.18700
H1415       H  0.86199846  0.81639644  0.05635550     0.10300
H1416       H  0.86380740  0.78177485  0.05921674     0.10400
H1417       H  0.89980122  0.78189131  0.95615588     0.10100
H1418       H  0.89782802  0.81656087  0.95316729     0.11200
H1419       H  0.87903177  0.75195197  0.03979034     0.11300
H1420       H  0.88719890  0.75213740  0.95124699     0.13200
H1421       H  0.87549470  0.72124999  0.92418880     0.09700
H1422       H  0.87254201  0.68664713  0.92910407     0.11800
H1423       H  0.89172749  0.68907207  0.04990151     0.08400
H1424       H  0.89470658  0.72364910  0.04505773     0.11200
C1425       C  0.68114688  0.62370973  0.98249392    -0.03400
C1426       C  0.69116156  0.63093257  0.94994199    -0.06100
C1427       C  0.71094176  0.62911513  0.94767981    -0.21100
C1428       C  0.72113784  0.62035168  0.97817104     0.24600
C1429       C  0.71114526  0.61304290  0.01076941    -0.18700
C1430       C  0.69130127  0.61468391  0.01284578    -0.08700
C1431       C  0.74214119  0.61897684  0.97490672    -0.18900
C1432       C  0.75371276  0.62024946  0.00639841    -0.23700
C1433       C  0.77472486  0.62111237  0.00281759     0.26600
C1434       C  0.78497906  0.63258151  0.02921542    -0.20500
C1435       C  0.80476963  0.63400057  0.02661134    -0.10200
C1436       C  0.81477096  0.62364484  0.99803019    -0.10700
C1437       C  0.80457317  0.61190259  0.97184762    -0.03600
C1438       C  0.78466421  0.61070116  0.97409296    -0.18700
H1439       H  0.68369518  0.63794965  0.92611060     0.10300
H1440       H  0.71834583  0.63481808  0.92228415     0.10400
H1441       H  0.71859289  0.60583548  0.03435799     0.10100
H1442       H  0.68391140  0.60890893  0.03817441     0.11200
H1443       H  0.74828095  0.61869866  0.94555808     0.11300
H1444       H  0.74761374  0.62260613  0.03536980     0.13200
H1445       H  0.77761590  0.64067266  0.05162204     0.09700
H1446       H  0.81227150  0.64308978  0.04731000     0.11800
H1447       H  0.81197330  0.60366125  0.94975144     0.08400
H1448       H  0.77711266  0.60142488  0.95385408     0.11200
loop_ 
_geom_bond_atom_site_label_1 
_geom_bond_atom_site_label_2 
_geom_bond_distance 
_geom_bond_site_symmetry_2 
_ccdc_geom_bond_type 
In1           O3   2.263       .  S
In1           O4   2.244       .  S
In1          O12   2.269   1_556  S
In1           O6   2.247   1_556  S
In1           O8   2.255   1_556  S
In1           O9   2.261       .  S
In1          O10   2.237       .  S
In1          O13   2.227   1_556  S
C2            O8   1.263   1_556  A
C2           O10   1.261       .  A
C2         C1412   1.478       .  S
O3           C11   1.262       .  A
O4           C11   1.260       .  A
C5           O12   1.262       .  A
C5            O6   1.260       .  A
C5         C1377   1.485       .  S
C7            O9   1.263       .  A
C7           O13   1.259   1_556  A
C7         C1436   1.475       .  S
C11        C1353   1.483       .  S
In14         O16   2.253       .  S
In14         O17   2.243       .  S
In14         O25   2.254   1_554  S
In14         O19   2.241   1_554  S
In14         O21   2.255   1_554  S
In14         O22   2.258       .  S
In14         O23   2.232       .  S
In14         O26   2.231   1_554  S
C15          O21   1.263   1_554  A
C15          O23   1.260       .  A
C15        C1401   1.477       .  S
O16          C24   1.262       .  A
O17          C24   1.261       .  A
C18          O25   1.262       .  A
C18          O19   1.261       .  A
C18        C1281   1.479       .  S
C20          O22   1.263   1_556  A
C20          O26   1.260       .  A
C20        C1340   1.476       .  S
C24        C1305   1.480       .  S
In27         O29   2.243   1_556  S
In27         O30   2.268   1_556  S
In27         O38   2.253       .  S
In27         O32   2.254       .  S
In27         O34   2.250       .  S
In27         O35   2.268   1_556  S
In27         O36   2.224   1_556  S
In27         O39   2.224       .  S
C28          O34   1.266       .  A
C28          O36   1.262   1_556  A
C28        C1329   1.476   1_556  S
O29          C37   1.260       .  A
O30          C37   1.263       .  A
C31          O38   1.261       .  A
C31          O32   1.261       .  A
C31        C1244   1.482       .  S
C33          O35   1.265   1_556  A
C33          O39   1.259       .  A
C33        C1257   1.478       .  S
C37        C1209   1.484       .  S
In40         O42   2.251       .  S
In40         O43   2.252       .  S
In40         O51   2.254   1_556  S
In40         O45   2.247   1_556  S
In40         O47   2.247   1_556  S
In40         O48   2.268       .  S
In40         O49   2.233       .  S
In40         O52   2.231   1_556  S
C41          O47   1.264   1_556  A
C41          O49   1.263       .  A
C41        C1425   1.477       .  S
O42          C50   1.262       .  A
O43          C50   1.263       .  A
C44          O51   1.260       .  A
C44          O45   1.260       .  A
C44        C1161   1.479       .  S
C46          O48   1.263       .  A
C46          O52   1.258   1_556  A
C46        C1268   1.478       .  S
C50        C1185   1.480       .  S
C53          C54   1.538       .  S
C53          C59   1.542       .  S
C53          C57   1.547       .  S
C53        C1148   1.538       .  S
C54          H61   1.086       .  S
C54          C55   1.368       .  D
C55          C56   1.542       .  S
C55        C1089   1.490       .  S
C56          C60   1.543       .  S
C56          C58   1.534       .  S
C56          H62   1.105       .  S
C57          H63   1.080       .  S
C57          C58   1.365       .  D
C58        C1124   1.489       .  S
C59          H64   1.084       .  S
C59          C60   1.373       .  D
C60        C1196   1.501       .  S
C65          C66   1.538       .  S
C65          C71   1.540       .  S
C65          C69   1.547       .  S
C65        C1137   1.539       .  S
C66          H73   1.085       .  S
C66          C67   1.372       .  D
C67          C68   1.546       .  S
C67        C1052   1.501       .  S
C68          C72   1.539       .  S
C68          C70   1.539       .  S
C68          H74   1.105       .  S
C69          H75   1.081       .  S
C69          C70   1.370       .  D
C70        C1065   1.494       .  S
C71          H76   1.086       .  S
C71          C72   1.367       .  D
C72        C1388   1.491       .  S
C77          C78   1.549       .  S
C77          C83   1.540       .  S
C77          C81   1.542       .  S
C77        C1028   1.535       .  S
C78          H85   1.081       .  S
C78          C79   1.370       .  D
C79          C80   1.541       .  S
C79        C1004   1.495       .  S
C80          C84   1.537       .  S
C80          C82   1.535       .  S
C80          H86   1.107       .  S
C81          H87   1.086       .  S
C81          C82   1.366       .  D
C82        C1113   1.486       .  S
C83          H88   1.086       .  S
C83          C84   1.368       .  D
C84        C1172   1.490       .  S
C89          C90   1.545       .  S
C89          C95   1.541       .  S
C89          C93   1.543       .  S
C89        C1017   1.536       .  S
C90          H97   1.080       .  S
C90          C91   1.367       .  D
C91          C92   1.542       .  S
C91         C945   1.495       .  S
C92          C96   1.537       .  S
C92          C94   1.541       .  S
C92          H98   1.104       .  S
C93          H99   1.085       .  S
C93          C94   1.372       .  D
C94         C980   1.499       .  S
C95         H100   1.086       .  S
C95          C96   1.367       .  D
C96        C1233   1.491       .  S
C101        C102   1.547   1_655  S
C101        C107   1.536       .  S
C101        C105   1.539       .  S
C101        C921   1.539       .  S
C102        H109   1.081       .  S
C102        C103   1.366       .  D
C103        C104   1.539   1_455  S
C103        C897   1.489       .  S
C104        C108   1.549       .  S
C104        C106   1.546       .  S
C104        H110   1.105       .  S
C105        H111   1.085       .  S
C105        C106   1.370       .  D
C106       C1076   1.500       .  S
C107        H112   1.085       .  S
C107        C108   1.371       .  D
C108       C1364   1.503       .  S
C113        C114   1.548   1_655  S
C113        C119   1.540       .  S
C113        C117   1.542       .  S
C113        C932   1.538       .  S
C114        H121   1.081       .  S
C114        C115   1.368   1_455  D
C115        C116   1.537       .  S
C115        C849   1.488   1_655  S
C116        C120   1.536       .  S
C116        C118   1.538       .  S
C116        H122   1.109       .  S
C117        H123   1.086       .  S
C117        C118   1.370       .  D
C118        C873   1.490       .  S
C119        H124   1.086       .  S
C119        C120   1.367       .  D
C120       C1316   1.485       .  S
C125        C126   1.538   1_565  S
C125        C131   1.552       .  S
C125        C129   1.541       .  S
C125        C825   1.539   1_565  S
C126        H133   1.086       .  S
C126        C127   1.369       .  D
C127        C128   1.541   1_545  S
C127        C801   1.490       .  S
C128        C132   1.537       .  S
C128        C130   1.534       .  S
C128        H134   1.108       .  S
C129        H135   1.086       .  S
C129        C130   1.365       .  D
C130        C969   1.481       .  S
C131        H136   1.080       .  S
C131        C132   1.372       .  D
C132       C1220   1.495       .  S
C137        C138   1.544       .  S
C137        C143   1.551   1_545  S
C137        C141   1.546   1_545  S
C137        C836   1.540       .  S
C138        H145   1.086       .  S
C138        C139   1.369       .  D
C139        C140   1.535       .  S
C139        C788   1.489       .  S
C140        C144   1.531   1_545  S
C140        C142   1.534   1_545  S
C140        H146   1.109   1_545  S
C141        H147   1.086       .  S
C141        C142   1.369       .  D
C142        C884   1.488       .  S
C143        H148   1.081       .  S
C143        C144   1.367       .  D
C144       C1292   1.484       .  S
In149       O151   2.237       .  S
In149       O152   2.261   1_556  S
In149       O160   2.259       .  S
In149       O154   2.245       .  S
In149       O156   2.253       .  S
In149       O157   2.251   1_556  S
In149       O158   2.228   1_556  S
In149       O161   2.266   1_556  S
C150        O156   1.264       .  A
C150        O158   1.261   1_556  A
C150        C740   1.476       .  S
O151        C159   1.259       .  A
O152        C159   1.263   1_554  A
C153        O160   1.261       .  A
C153        O154   1.260       .  A
C153        C705   1.480       .  S
C155        O157   1.260       .  A
C155        O161   1.261       .  A
C155        C681   1.484       .  S
C159        C764   1.478       .  S
In162       O164   2.232   1_556  S
In162       O165   2.254       .  S
In162       O173   2.244   1_556  S
In162       O167   2.261   1_556  S
In162       O169   2.260   1_556  S
In162       O170   2.244       .  S
In162       O171   2.227       .  S
In162       O174   2.261       .  S
C163        O169   1.264       .  A
C163        O171   1.260   1_554  A
C163        C729   1.477       .  S
O164        C172   1.261   1_554  A
O165        C172   1.263       .  A
C166        O173   1.260       .  A
C166        O167   1.263       .  A
C166        C644   1.482       .  S
C168        O170   1.261       .  A
C168        O174   1.262       .  A
C168        C609   1.482       .  S
C172        C668   1.477       .  S
In175       O177   2.232   1_554  S
In175       O178   2.249       .  S
In175       O186   2.270   1_554  S
In175       O180   2.239   1_554  S
In175       O182   2.256   1_554  S
In175       O183   2.240       .  S
In175       O184   2.238       .  S
In175       O187   2.262       .  S
C176        O182   1.262       .  A
C176        O184   1.259   1_556  A
C176        C596   1.477       .  S
O177        C185   1.261   1_556  A
O178        C185   1.264       .  A
C179        O186   1.263       .  A
C179        O180   1.260       .  A
C179        C548   1.484       .  S
C181        O183   1.260       .  A
C181        O187   1.262       .  A
C181        C572   1.481       .  S
C185        C657   1.475       .  S
In188       O190   2.219       .  S
In188       O191   2.260   1_556  S
In188       O199   2.259       .  S
In188       O193   2.243       .  S
In188       O195   2.264       .  S
In188       O196   2.246   1_556  S
In188       O197   2.224   1_556  S
In188       O200   2.260   1_556  S
C189        O195   1.265       .  A
C189        O197   1.260   1_556  A
C189        C753   1.478       .  S
O190        C198   1.259       .  A
O191        C198   1.265   1_554  A
C192        O199   1.261       .  A
C192        O193   1.260       .  A
C192        C489   1.480       .  S
C194        O196   1.261       .  A
C194        O200   1.262       .  A
C194        C513   1.483       .  S
C198        C585   1.475       .  S
C201        C202   1.549       .  S
C201        C207   1.540       .  S
C201        C205   1.544       .  S
C201        C476   1.537       .  S
C202        H209   1.080       .  S
C202        C203   1.368       .  D
C203        C204   1.534       .  S
C203        C716   1.492       .  S
C204        C208   1.537       .  S
C204        C206   1.540       .  S
C204        H210   1.104       .  S
C205        H211   1.085       .  S
C205        C206   1.371       .  D
C206        C452   1.497       .  S
C207        H212   1.086       .  S
C207        C208   1.366       .  D
C208        C908   1.486       .  S
C213        C214   1.540       .  S
C213        C219   1.540       .  S
C213        C217   1.549       .  S
C213        C465   1.539       .  S
C214        H221   1.086       .  S
C214        C215   1.369       .  D
C215        C216   1.539       .  S
C215        C524   1.492       .  S
C216        C220   1.549       .  S
C216        C218   1.538       .  S
C216        H222   1.106       .  S
C217        H223   1.079       .  S
C217        C218   1.366       .  D
C218        C428   1.492       .  S
C219        H224   1.085       .  S
C219        C220   1.371       .  D
C220        C993   1.503       .  S
C225        C226   1.542       .  S
C225        C231   1.544       .  S
C225        C229   1.540       .  S
C225        C393   1.535       .  S
C226        H233   1.086       .  S
C226        C227   1.368       .  D
C227        C228   1.541       .  S
C227        C561   1.492       .  S
C228        C232   1.541       .  S
C228        C230   1.543       .  S
C228        H234   1.105       .  S
C229        H235   1.085       .  S
C229        C230   1.370       .  D
C230        C369   1.500       .  S
C231        H236   1.080       .  S
C231        C232   1.366       .  D
C232        C812   1.492       .  S
C237        C238   1.540       .  S
C237        C243   1.544       .  S
C237        C241   1.541       .  S
C237        C404   1.532       .  S
C238        H245   1.086       .  S
C238        C239   1.365       .  D
C239        C240   1.537       .  S
C239        C500   1.484       .  S
C240        C244   1.543       .  S
C240        C242   1.540       .  S
C240        H246   1.108       .  S
C241        H247   1.085       .  S
C241        C242   1.368       .  D
C242        C417   1.495       .  S
C243        H248   1.082       .  S
C243        C244   1.369       .  D
C244       C1100   1.490       .  S
C249        C250   1.550       .  S
C249        C255   1.541   1_545  S
C249        C253   1.541       .  S
C249        C345   1.536       .  S
C250        H257   1.080       .  S
C250        C251   1.370       .  D
C251        C252   1.538       .  S
C251        C633   1.493       .  S
C252        C256   1.539   1_545  S
C252        C254   1.532       .  S
C252        H258   1.108       .  S
C253        H259   1.086       .  S
C253        C254   1.364       .  D
C254        C332   1.481       .  S
C255        H260   1.086       .  S
C255        C256   1.368       .  D
C256        C860   1.488       .  S
C261        C262   1.549       .  S
C261        C267   1.542   1_545  S
C261        C265   1.540       .  S
C261        C356   1.535       .  S
C262        H269   1.081       .  S
C262        C263   1.368       .  D
C263        C264   1.535       .  S
C263        C537   1.486       .  S
C264        C268   1.540   1_545  S
C264        C266   1.535       .  S
C264        H270   1.109       .  S
C265        H271   1.086       .  S
C265        C266   1.365       .  D
C266        C380   1.483       .  S
C267        H272   1.086       .  S
C267        C268   1.369       .  D
C268        C956   1.490       .  S
C273        C274   1.549   1_655  S
C273        C279   1.543       .  S
C273        C277   1.541   1_655  S
C273        C297   1.539       .  S
C274        H281   1.080       .  S
C274        C275   1.368       .  D
C275        C276   1.535   1_455  S
C275        C620   1.490       .  S
C276        C280   1.541       .  S
C276        C278   1.536   1_655  S
C276        H282   1.107       .  S
C277        H283   1.086       .  S
C277        C278   1.367       .  D
C278        C321   1.486       .  S
C279        H284   1.085       .  S
C279        C280   1.371       .  D
C280        C777   1.494       .  S
C285        C286   1.551       .  S
C285        C291   1.540   1_455  S
C285        C289   1.542       .  S
C285        C308   1.536   1_455  S
C286        H293   1.081       .  S
C286        C287   1.370       .  D
C287        C288   1.535       .  S
C287        C692   1.489       .  S
C288        C292   1.540   1_455  S
C288        C290   1.535       .  S
C288        H294   1.108       .  S
C289        H295   1.086       .  S
C289        C290   1.366       .  D
C290        C441   1.485       .  S
C291        H296   1.086       .  S
C291        C292   1.368       .  D
C292       C1041   1.491       .  S
C297        C298   1.410       .  A
C297        C302   1.413   1_655  A
C298        C299   1.403       .  A
C298        H311   1.083       .  S
C299        C300   1.404       .  A
C299        H312   1.083       .  S
C300        C303   1.497       .  S
C300        C301   1.407   1_655  A
C301        C302   1.402       .  A
C301        H313   1.081       .  S
C302        H314   1.076       .  S
C303        H315   1.085       .  S
C303        C304   1.352       .  D
C304        H316   1.085       .  S
C304        C305   1.496       .  S
C305        C306   1.403       .  A
C305        C310   1.408   1_655  A
C306        C307   1.399       .  A
C306        H317   1.083       .  S
C307        C308   1.409       .  A
C307        H318   1.083       .  S
C308        C309   1.412   1_655  A
C309        C310   1.405       .  A
C309        H319   1.077       .  S
C310        H320   1.081       .  S
C321        C322   1.404       .  A
C321        C326   1.405       .  A
C322        C323   1.396       .  A
C322        H335   1.082       .  S
C323        C324   1.403       .  A
C323        H336   1.083       .  S
C324        C327   1.490       .  S
C324        C325   1.410       .  A
C325        C326   1.401       .  A
C325        H337   1.080       .  S
C326        H338   1.083       .  S
C327        H339   1.085       .  S
C327        C328   1.348       .  D
C328        H340   1.084       .  S
C328        C329   1.489       .  S
C329        C330   1.404       .  A
C329        C334   1.410       .  A
C330        C331   1.398       .  A
C330        H341   1.083       .  S
C331        C332   1.403       .  A
C331        H342   1.083       .  S
C332        C333   1.403       .  A
C333        C334   1.400       .  A
C333        H343   1.083       .  S
C334        H344   1.081       .  S
C345        C346   1.409       .  A
C345        C350   1.412       .  A
C346        C347   1.400       .  A
C346        H359   1.083   1_545  S
C347        C348   1.404       .  A
C347        H360   1.083   1_545  S
C348        C351   1.496       .  S
C348        C349   1.408       .  A
C349        C350   1.402       .  A
C349        H361   1.081       .  S
C350        H362   1.077       .  S
C351        H363   1.084       .  S
C351        C352   1.351       .  D
C352        H364   1.084       .  S
C352        C353   1.496       .  S
C353        C354   1.403   1_545  A
C353        C358   1.408       .  A
C354        C355   1.399       .  A
C354        H365   1.083       .  S
C355        C356   1.409   1_565  A
C355        H366   1.083       .  S
C356        C357   1.412       .  A
C357        C358   1.403       .  A
C357        H367   1.077       .  S
C358        H368   1.081       .  S
C369        C370   1.411       .  A
C369        C374   1.408       .  A
C370        C371   1.401       .  A
C370        H383   1.081       .  S
C371        C372   1.402       .  A
C371        H384   1.083       .  S
C372        C375   1.487       .  S
C372        C373   1.404       .  A
C373        C374   1.397       .  A
C373        H385   1.082       .  S
C374        H386   1.076       .  S
C375        H387   1.086       .  S
C375        C376   1.348       .  D
C376        H388   1.086       .  S
C376        C377   1.486       .  S
C377        C378   1.404       .  A
C377        C382   1.407       .  A
C378        C379   1.399       .  A
C378        H389   1.083       .  S
C379        C380   1.404       .  A
C379        H390   1.083       .  S
C380        C381   1.404       .  A
C381        C382   1.400       .  A
C381        H391   1.083       .  S
C382        H392   1.082       .  S
C393        C394   1.412       .  A
C393        C398   1.409       .  A
C394        C395   1.400       .  A
C394        H407   1.076       .  S
C395        C396   1.402       .  A
C395        H408   1.084       .  S
C396        C399   1.494       .  S
C396        C397   1.408       .  A
C397        C398   1.400       .  A
C397        H409   1.081       .  S
C398        H410   1.083       .  S
C399        H411   1.083       .  S
C399        C400   1.350       .  D
C400        H412   1.084       .  S
C400        C401   1.495       .  S
C401        C402   1.403       .  A
C401        C406   1.410       .  A
C402        C403   1.396       .  A
C402        H413   1.083       .  S
C403        C404   1.408       .  A
C403        H414   1.083       .  S
C404        C405   1.411       .  A
C405        C406   1.403       .  A
C405        H415   1.078       .  S
C406        H416   1.080       .  S
C417        C418   1.408       .  A
C417        C422   1.405       .  A
C418        C419   1.400       .  A
C418        H431   1.082       .  S
C419        C420   1.404       .  A
C419        H432   1.083       .  S
C420        C423   1.492       .  S
C420        C421   1.408       .  A
C421        C422   1.396       .  A
C421        H433   1.080       .  S
C422        H434   1.077       .  S
C423        H435   1.085       .  S
C423        C424   1.349       .  D
C424        H436   1.083       .  S
C424        C425   1.488       .  S
C425        C426   1.402       .  A
C425        C430   1.408       .  A
C426        C427   1.396       .  A
C426        H437   1.083       .  S
C427        C428   1.403       .  A
C427        H438   1.076       .  S
C428        C429   1.409       .  A
C429        C430   1.400       .  A
C429        H439   1.082       .  S
C430        H440   1.081       .  S
C441        C442   1.403       .  A
C441        C446   1.406       .  A
C442        C443   1.394       .  A
C442        H455   1.082       .  S
C443        C444   1.404       .  A
C443        H456   1.084       .  S
C444        C447   1.487       .  S
C444        C445   1.409       .  A
C445        C446   1.400       .  A
C445        H457   1.080       .  S
C446        H458   1.083       .  S
C447        H459   1.085       .  S
C447        C448   1.349       .  D
C448        H460   1.084       .  S
C448        C449   1.488       .  S
C449        C450   1.403       .  A
C449        C454   1.405       .  A
C450        C451   1.401       .  A
C450        H461   1.083       .  S
C451        C452   1.410       .  A
C451        H462   1.081       .  S
C452        C453   1.406       .  A
C453        C454   1.393       .  A
C453        H463   1.077       .  S
C454        H464   1.081       .  S
C465        C466   1.411       .  A
C465        C470   1.412       .  A
C466        C467   1.405       .  A
C466        H479   1.083       .  S
C467        C468   1.405       .  A
C467        H480   1.083       .  S
C468        C471   1.496       .  S
C468        C469   1.405       .  A
C469        C470   1.397       .  A
C469        H481   1.082       .  S
C470        H482   1.075       .  S
C471        H483   1.084       .  S
C471        C472   1.352       .  D
C472        H484   1.085       .  S
C472        C473   1.496       .  S
C473        C474   1.404       .  A
C473        C478   1.408       .  A
C474        C475   1.398       .  A
C474        H485   1.084       .  S
C475        C476   1.410       .  A
C475        H486   1.076       .  S
C476        C477   1.411       .  A
C477        C478   1.404       .  A
C477        H487   1.083       .  S
C478        H488   1.080       .  S
C489        C490   1.405       .  A
C489        C494   1.404       .  A
C490        C491   1.402       .  A
C490        H503   1.083       .  S
C491        C492   1.406       .  A
C491        H504   1.083       .  S
C492        C495   1.491       .  S
C492        C493   1.408       .  A
C493        C494   1.398       .  A
C493        H505   1.081       .  S
C494        H506   1.083       .  S
C495        H507   1.085       .  S
C495        C496   1.349       .  D
C496        H508   1.085       .  S
C496        C497   1.488       .  S
C497        C498   1.404       .  A
C497        C502   1.409       .  A
C498        C499   1.397       .  A
C498        H509   1.083       .  S
C499        C500   1.403       .  A
C499        H510   1.083       .  S
C500        C501   1.404       .  A
C501        C502   1.401       .  A
C501        H511   1.083       .  S
C502        H512   1.081       .  S
C513        C514   1.404       .  A
C513        C518   1.405       .  A
C514        C515   1.399       .  A
C514        H527   1.083       .  S
C515        C516   1.405       .  A
C515        H528   1.083       .  S
C516        C519   1.494       .  S
C516        C517   1.410       .  A
C517        C518   1.403       .  A
C517        H529   1.081       .  S
C518        H530   1.083       .  S
C519        H531   1.083       .  S
C519        C520   1.352       .  D
C520        H532   1.084       .  S
C520        C521   1.496       .  S
C521        C522   1.407       .  A
C521        C526   1.409       .  A
C522        C523   1.401       .  A
C522        H533   1.083       .  S
C523        C524   1.404       .  A
C523        H534   1.083       .  S
C524        C525   1.406       .  A
C525        C526   1.400       .  A
C525        H535   1.082       .  S
C526        H536   1.080       .  S
C537        C538   1.405       .  A
C537        C542   1.404       .  A
C538        C539   1.401       .  A
C538        H551   1.083       .  S
C539        C540   1.404       .  A
C539        H552   1.083       .  S
C540        C543   1.490       .  S
C540        C541   1.408       .  A
C541        C542   1.399       .  A
C541        H553   1.082       .  S
C542        H554   1.083       .  S
C543        H555   1.085       .  S
C543        C544   1.348       .  D
C544        H556   1.087       .  S
C544        C545   1.491       .  S
C545        C546   1.403       .  A
C545        C550   1.410       .  A
C546        C547   1.396       .  A
C546        H557   1.083       .  S
C547        C548   1.404       .  A
C547        H558   1.083       .  S
C548        C549   1.407       .  A
C549        C550   1.406       .  A
C549        H559   1.083       .  S
C550        H560   1.081       .  S
C561        C562   1.404       .  A
C561        C566   1.408       .  A
C562        C563   1.395       .  A
C562        H575   1.082       .  S
C563        C564   1.402       .  A
C563        H576   1.084       .  S
C564        C567   1.488       .  S
C564        C565   1.409       .  A
C565        C566   1.405       .  A
C565        H577   1.082       .  S
C566        H578   1.083       .  S
C567        H579   1.085       .  S
C567        C568   1.348       .  D
C568        H580   1.086       .  S
C568        C569   1.492       .  S
C569        C570   1.405       .  A
C569        C574   1.408       .  A
C570        C571   1.403       .  A
C570        H581   1.083       .  S
C571        C572   1.406       .  A
C571        H582   1.083       .  S
C572        C573   1.404       .  A
C573        C574   1.397       .  A
C573        H583   1.083       .  S
C574        H584   1.081       .  S
C585        C586   1.404       .  A
C585        C590   1.405   1_556  A
C586        C587   1.393       .  A
C586        H599   1.083       .  S
C587        C588   1.400       .  A
C587        H600   1.084       .  S
C588        C591   1.480       .  S
C588        C589   1.408   1_556  A
C589        C590   1.402       .  A
C589        H601   1.082       .  S
C590        H602   1.083       .  S
C591        H603   1.087       .  S
C591        C592   1.344       .  D
C592        H604   1.086   1_556  S
C592        C593   1.482       .  S
C593        C594   1.403       .  A
C593        C598   1.406   1_556  A
C594        C595   1.401       .  A
C594        H605   1.083       .  S
C595        C596   1.405       .  A
C595        H606   1.083       .  S
C596        C597   1.404   1_556  A
C597        C598   1.395       .  A
C597        H607   1.083       .  S
C598        H608   1.083       .  S
C609        C610   1.406       .  A
C609        C614   1.405       .  A
C610        C611   1.402       .  A
C610        H623   1.083       .  S
C611        C612   1.404       .  A
C611        H624   1.083       .  S
C612        C615   1.489       .  S
C612        C613   1.407       .  A
C613        C614   1.398       .  A
C613        H625   1.083       .  S
C614        H626   1.083       .  S
C615        H627   1.085       .  S
C615        C616   1.349       .  D
C616        H628   1.087       .  S
C616        C617   1.489       .  S
C617        C618   1.404       .  A
C617        C622   1.408       .  A
C618        C619   1.397       .  A
C618        H629   1.083       .  S
C619        C620   1.405       .  A
C619        H630   1.083       .  S
C620        C621   1.406       .  A
C621        C622   1.403       .  A
C621        H631   1.083   1_455  S
C622        H632   1.081       .  S
C633        C634   1.407       .  A
C633        C638   1.408       .  A
C634        C635   1.400       .  A
C634        H647   1.082       .  S
C635        C636   1.402       .  A
C635        H648   1.083       .  S
C636        C639   1.486       .  S
C636        C637   1.406       .  A
C637        C638   1.400       .  A
C637        H649   1.083       .  S
C638        H650   1.082       .  S
C639        H651   1.086       .  S
C639        C640   1.345       .  D
C640        H652   1.087       .  S
C640        C641   1.486       .  S
C641        C642   1.402       .  A
C641        C646   1.408       .  A
C642        C643   1.399       .  A
C642        H653   1.083       .  S
C643        C644   1.406       .  A
C643        H654   1.083       .  S
C644        C645   1.405       .  A
C645        C646   1.402       .  A
C645        H655   1.083       .  S
C646        H656   1.082       .  S
C657        C658   1.404       .  A
C657        C662   1.404   1_554  A
C658        C659   1.399       .  A
C658        H671   1.083       .  S
C659        C660   1.404       .  A
C659        H672   1.083       .  S
C660        C663   1.483       .  S
C660        C661   1.406   1_554  A
C661        C662   1.397       .  A
C661        H673   1.082       .  S
C662        H674   1.083       .  S
C663        H675   1.086       .  S
C663        C664   1.347   1_554  D
C664        H676   1.086       .  S
C664        C665   1.484       .  S
C665        C666   1.404       .  A
C665        C670   1.406   1_556  A
C666        C667   1.400       .  A
C666        H677   1.083       .  S
C667        C668   1.404       .  A
C667        H678   1.083       .  S
C668        C669   1.404   1_556  A
C669        C670   1.395       .  A
C669        H679   1.083       .  S
C670        H680   1.082       .  S
C681        C682   1.405       .  A
C681        C686   1.405       .  A
C682        C683   1.403       .  A
C682        H695   1.083       .  S
C683        C684   1.406       .  A
C683        H696   1.083       .  S
C684        C687   1.495       .  S
C684        C685   1.409       .  A
C685        C686   1.400       .  A
C685        H697   1.081       .  S
C686        H698   1.083       .  S
C687        H699   1.085       .  S
C687        C688   1.351       .  D
C688        H700   1.085       .  S
C688        C689   1.494       .  S
C689        C690   1.405       .  A
C689        C694   1.411       .  A
C690        C691   1.398       .  A
C690        H701   1.083       .  S
C691        C692   1.404       .  A
C691        H702   1.083       .  S
C692        C693   1.405       .  A
C693        C694   1.404       .  A
C693        H703   1.083       .  S
C694        H704   1.081       .  S
C705        C706   1.404       .  A
C705        C710   1.405       .  A
C706        C707   1.398       .  A
C706        H719   1.083       .  S
C707        C708   1.404       .  A
C707        H720   1.083       .  S
C708        C711   1.490       .  S
C708        C709   1.409       .  A
C709        C710   1.401       .  A
C709        H721   1.081       .  S
C710        H722   1.083       .  S
C711        H723   1.084       .  S
C711        C712   1.350       .  D
C712        H724   1.084       .  S
C712        C713   1.491       .  S
C713        C714   1.405       .  A
C713        C718   1.408       .  A
C714        C715   1.399       .  A
C714        H725   1.083       .  S
C715        C716   1.405       .  A
C715        H726   1.082       .  S
C716        C717   1.407       .  A
C717        C718   1.398       .  A
C717        H727   1.082       .  S
C718        H728   1.081       .  S
C729        C730   1.403       .  A
C729        C734   1.404   1_554  A
C730        C731   1.400       .  A
C730        H743   1.083       .  S
C731        C732   1.406       .  A
C731        H744   1.083       .  S
C732        C735   1.487       .  S
C732        C733   1.407   1_554  A
C733        C734   1.395       .  A
C733        H745   1.081       .  S
C734        H746   1.083       .  S
C735        H747   1.085       .  S
C735        C736   1.349   1_554  D
C736        H748   1.085       .  S
C736        C737   1.487       .  S
C737        C738   1.405       .  A
C737        C742   1.407   1_556  A
C738        C739   1.400       .  A
C738        H749   1.083       .  S
C739        C740   1.404       .  A
C739        H750   1.083       .  S
C740        C741   1.404   1_556  A
C741        C742   1.395       .  A
C741        H751   1.083       .  S
C742        H752   1.081       .  S
C753        C754   1.404   1_556  A
C753        C758   1.405       .  A
C754        C755   1.394       .  A
C754        H767   1.083       .  S
C755        C756   1.401   1_554  A
C755        H768   1.084       .  S
C756        C759   1.482       .  S
C756        C757   1.408       .  A
C757        C758   1.403       .  A
C757        H769   1.082       .  S
C758        H770   1.083       .  S
C759        H771   1.087       .  S
C759        C760   1.345       .  D
C760        H772   1.086       .  S
C760        C761   1.485       .  S
C761        C762   1.404   1_556  A
C761        C766   1.406       .  A
C762        C763   1.401       .  A
C762        H773   1.083       .  S
C763        C764   1.405   1_554  A
C763        H774   1.083       .  S
C764        C765   1.404       .  A
C765        C766   1.396       .  A
C765        H775   1.083       .  S
C766        H776   1.083       .  S
C777        C778   1.406       .  A
C777        C782   1.407       .  A
C778        C779   1.402       .  A
C778        H791   1.082       .  S
C779        C780   1.405       .  A
C779        H792   1.083       .  S
C780        C783   1.495       .  S
C780        C781   1.408       .  A
C781        C782   1.400       .  A
C781        H793   1.081       .  S
C782        H794   1.082       .  S
C783        H795   1.084       .  S
C783        C784   1.351       .  D
C784        H796   1.085       .  S
C784        C785   1.494       .  S
C785        C786   1.404       .  A
C785        C790   1.411       .  A
C786        C787   1.397       .  A
C786        H797   1.083       .  S
C787        C788   1.404       .  A
C787        H798   1.083       .  S
C788        C789   1.405       .  A
C789        C790   1.405       .  A
C789        H799   1.083       .  S
C790        H800   1.080       .  S
C801        C802   1.406       .  A
C801        C806   1.404       .  A
C802        C803   1.400       .  A
C802        H815   1.083       .  S
C803        C804   1.405       .  A
C803        H816   1.083       .  S
C804        C807   1.493       .  S
C804        C805   1.410       .  A
C805        C806   1.399       .  A
C805        H817   1.080       .  S
C806        H818   1.082       .  S
C807        H819   1.085       .  S
C807        C808   1.350       .  D
C808        H820   1.084       .  S
C808        C809   1.490       .  S
C809        C810   1.403       .  A
C809        C814   1.408       .  A
C810        C811   1.397       .  A
C810        H821   1.084       .  S
C811        C812   1.403       .  A
C811        H822   1.078       .  S
C812        C813   1.408       .  A
C813        C814   1.401       .  A
C813        H823   1.082       .  S
C814        H824   1.081       .  S
C825        C826   1.410   1_545  A
C825        C830   1.411       .  A
C826        C827   1.401   1_565  A
C826        H839   1.076       .  S
C827        C828   1.405       .  A
C827        H840   1.083   1_545  S
C828        C831   1.502       .  S
C828        C829   1.409       .  A
C829        C830   1.404       .  A
C829        H841   1.080       .  S
C830        H842   1.083       .  S
C831        H843   1.084       .  S
C831        C832   1.353       .  D
C832        H844   1.083       .  S
C832        C833   1.500       .  S
C833        C834   1.404       .  A
C833        C838   1.409       .  A
C834        C835   1.402       .  A
C834        H845   1.084       .  S
C835        C836   1.412       .  A
C835        H846   1.076       .  S
C836        C837   1.410       .  A
C837        C838   1.404       .  A
C837        H847   1.083       .  S
C838        H848   1.080       .  S
C849        C850   1.405       .  A
C849        C854   1.404       .  A
C850        C851   1.401       .  A
C850        H863   1.083       .  S
C851        C852   1.405       .  A
C851        H864   1.083       .  S
C852        C855   1.493       .  S
C852        C853   1.409       .  A
C853        C854   1.399       .  A
C853        H865   1.080       .  S
C854        H866   1.083   1_455  S
C855        H867   1.085       .  S
C855        C856   1.350       .  D
C856        H868   1.084       .  S
C856        C857   1.491       .  S
C857        C858   1.404       .  A
C857        C862   1.409       .  A
C858        C859   1.398       .  A
C858        H869   1.083       .  S
C859        C860   1.404       .  A
C859        H870   1.083       .  S
C860        C861   1.406       .  A
C861        C862   1.402       .  A
C861        H871   1.083       .  S
C862        H872   1.081       .  S
C873        C874   1.405       .  A
C873        C878   1.405       .  A
C874        C875   1.398       .  A
C874        H887   1.082       .  S
C875        C876   1.404       .  A
C875        H888   1.083       .  S
C876        C879   1.494       .  S
C876        C877   1.411       .  A
C877        C878   1.400       .  A
C877        H889   1.079       .  S
C878        H890   1.083       .  S
C879        H891   1.086       .  S
C879        C880   1.348       .  D
C880        H892   1.083       .  S
C880        C881   1.488       .  S
C881        C882   1.402       .  A
C881        C886   1.409       .  A
C882        C883   1.396       .  A
C882        H893   1.084       .  S
C883        C884   1.406       .  A
C883        H894   1.082       .  S
C884        C885   1.405       .  A
C885        C886   1.403       .  A
C885        H895   1.083       .  S
C886        H896   1.082       .  S
C897        C898   1.405       .  A
C897        C902   1.404       .  A
C898        C899   1.401       .  A
C898        H911   1.083       .  S
C899        C900   1.405       .  A
C899        H912   1.083       .  S
C900        C903   1.495       .  S
C900        C901   1.411       .  A
C901        C902   1.400       .  A
C901        H913   1.080       .  S
C902        H914   1.083       .  S
C903        H915   1.084       .  S
C903        C904   1.350       .  D
C904        H916   1.084       .  S
C904        C905   1.494       .  S
C905        C906   1.404       .  A
C905        C910   1.412       .  A
C906        C907   1.396       .  A
C906        H917   1.083       .  S
C907        C908   1.402       .  A
C907        H918   1.080       .  S
C908        C909   1.404       .  A
C909        C910   1.405       .  A
C909        H919   1.083       .  S
C910        H920   1.080       .  S
C921        C922   1.410   1_655  A
C921        C926   1.411       .  A
C922        C923   1.400       .  A
C922        H935   1.076       .  S
C923        C924   1.404   1_455  A
C923        H936   1.084       .  S
C924        C927   1.499       .  S
C924        C925   1.409       .  A
C925        C926   1.404       .  A
C925        H937   1.080       .  S
C926        H938   1.083       .  S
C927        H939   1.083   1_655  S
C927        C928   1.353       .  D
C928        H940   1.083       .  S
C928        C929   1.499       .  S
C929        C930   1.404       .  A
C929        C934   1.408       .  A
C930        C931   1.402       .  A
C930        H941   1.083       .  S
C931        C932   1.410       .  A
C931        H942   1.083       .  S
C932        C933   1.412       .  A
C933        C934   1.402       .  A
C933        H943   1.076   1_655  S
C934        H944   1.080   1_655  S
C945        C946   1.404       .  A
C945        C950   1.408       .  A
C946        C947   1.396       .  A
C946        H959   1.078       .  S
C947        C948   1.402       .  A
C947        H960   1.084       .  S
C948        C951   1.490       .  S
C948        C949   1.409       .  A
C949        C950   1.403       .  A
C949        H961   1.081       .  S
C950        H962   1.082       .  S
C951        H963   1.084       .  S
C951        C952   1.349       .  D
C952        H964   1.084       .  S
C952        C953   1.492       .  S
C953        C954   1.405       .  A
C953        C958   1.409       .  A
C954        C955   1.402       .  A
C954        H965   1.083       .  S
C955        C956   1.406       .  A
C955        H966   1.083       .  S
C956        C957   1.404       .  A
C957        C958   1.398       .  A
C957        H967   1.082       .  S
C958        H968   1.081       .  S
C969        C970   1.404       .  A
C969        C974   1.403       .  A
C970        C971   1.397       .  A
C970        H983   1.083       .  S
C971        C972   1.402       .  A
C971        H984   1.083       .  S
C972        C975   1.484       .  S
C972        C973   1.408       .  A
C973        C974   1.400       .  A
C973        H985   1.082       .  S
C974        H986   1.083       .  S
C975        H987   1.086       .  S
C975        C976   1.345       .  D
C976        H988   1.086       .  S
C976        C977   1.484       .  S
C977        C978   1.399       .  A
C977        C982   1.405       .  A
C978        C979   1.395       .  A
C978        H989   1.084       .  S
C979        C980   1.408       .  A
C979        H990   1.076       .  S
C980        C981   1.411       .  A
C981        C982   1.401       .  A
C981        H991   1.081       .  S
C982        H992   1.082       .  S
C993        C994   1.410       .  A
C993        C998   1.406       .  A
C994        C995   1.405       .  A
C994       H1007   1.082       .  S
C995        C996   1.406       .  A
C995       H1008   1.083       .  S
C996        C999   1.500       .  S
C996        C997   1.408       .  A
C997        C998   1.398       .  A
C997       H1009   1.080       .  S
C998       H1010   1.075       .  S
C999       H1011   1.084       .  S
C999       C1000   1.353       .  D
C1000      H1012   1.083       .  S
C1000      C1001   1.496       .  S
C1001      C1002   1.405       .  A
C1001      C1006   1.411       .  A
C1002      C1003   1.396       .  A
C1002      H1013   1.083       .  S
C1003      C1004   1.404       .  A
C1003      H1014   1.082       .  S
C1004      C1005   1.408       .  A
C1005      C1006   1.407       .  A
C1005      H1015   1.083       .  S
C1006      H1016   1.080       .  S
C1017      C1018   1.411       .  A
C1017      C1022   1.410       .  A
C1018      C1019   1.401       .  A
C1018      H1031   1.077       .  S
C1019      C1020   1.404       .  A
C1019      H1032   1.084       .  S
C1020      C1023   1.497       .  S
C1020      C1021   1.408       .  A
C1021      C1022   1.401       .  A
C1021      H1033   1.080       .  S
C1022      H1034   1.083       .  S
C1023      H1035   1.083       .  S
C1023      C1024   1.352       .  D
C1024      H1036   1.083       .  S
C1024      C1025   1.497       .  S
C1025      C1026   1.403       .  A
C1025      C1030   1.410       .  A
C1026      C1027   1.398       .  A
C1026      H1037   1.083       .  S
C1027      C1028   1.409       .  A
C1027      H1038   1.083       .  S
C1028      C1029   1.411       .  A
C1029      C1030   1.404       .  A
C1029      H1039   1.077       .  S
C1030      H1040   1.080       .  S
C1041      C1042   1.405       .  A
C1041      C1046   1.407       .  A
C1042      C1043   1.399       .  A
C1042      H1055   1.082       .  S
C1043      C1044   1.404       .  A
C1043      H1056   1.083       .  S
C1044      C1047   1.490       .  S
C1044      C1045   1.408       .  A
C1045      C1046   1.401       .  A
C1045      H1057   1.082       .  S
C1046      H1058   1.082       .  S
C1047      H1059   1.086       .  S
C1047      C1048   1.350       .  D
C1048      H1060   1.085       .  S
C1048      C1049   1.490       .  S
C1049      C1050   1.403       .  A
C1049      C1054   1.405       .  A
C1050      C1051   1.402       .  A
C1050      H1061   1.083       .  S
C1051      C1052   1.410       .  A
C1051      H1062   1.081       .  S
C1052      C1053   1.408       .  A
C1053      C1054   1.398       .  A
C1053      H1063   1.080       .  S
C1054      H1064   1.082       .  S
C1065      C1066   1.405       .  A
C1065      C1070   1.407       .  A
C1066      C1067   1.398       .  A
C1066      H1079   1.082       .  S
C1067      C1068   1.405       .  A
C1067      H1080   1.083       .  S
C1068      C1071   1.496       .  S
C1068      C1069   1.410       .  A
C1069      C1070   1.403       .  A
C1069      H1081   1.080       .  S
C1070      H1082   1.082       .  S
C1071      H1083   1.084       .  S
C1071      C1072   1.352       .  D
C1072      H1084   1.083       .  S
C1072      C1073   1.495       .  S
C1073      C1074   1.404       .  A
C1073      C1078   1.408       .  A
C1074      C1075   1.401       .  A
C1074      H1085   1.083       .  S
C1075      C1076   1.409       .  A
C1075      H1086   1.082       .  S
C1076      C1077   1.406       .  A
C1077      C1078   1.400       .  A
C1077      H1087   1.078       .  S
C1078      H1088   1.081       .  S
C1089      C1090   1.403       .  A
C1089      C1094   1.407       .  A
C1090      C1091   1.395       .  A
C1090      H1103   1.082       .  S
C1091      C1092   1.405       .  A
C1091      H1104   1.083       .  S
C1092      C1095   1.495       .  S
C1092      C1093   1.411       .  A
C1093      C1094   1.405       .  A
C1093      H1105   1.080       .  S
C1094      H1106   1.083       .  S
C1095      H1107   1.083       .  S
C1095      C1096   1.351       .  D
C1096      H1108   1.083       .  S
C1096      C1097   1.497       .  S
C1097      C1098   1.406       .  A
C1097      C1102   1.410       .  A
C1098      C1099   1.402       .  A
C1098      H1109   1.083       .  S
C1099      C1100   1.406       .  A
C1099      H1110   1.083       .  S
C1100      C1101   1.402       .  A
C1101      C1102   1.398       .  A
C1101      H1111   1.078       .  S
C1102      H1112   1.079       .  S
C1113      C1114   1.404       .  A
C1113      C1118   1.404       .  A
C1114      C1115   1.397       .  A
C1114      H1127   1.083       .  S
C1115      C1116   1.404       .  A
C1115      H1128   1.083       .  S
C1116      C1119   1.491       .  S
C1116      C1117   1.410       .  A
C1117      C1118   1.400       .  A
C1117      H1129   1.080       .  S
C1118      H1130   1.083       .  S
C1119      H1131   1.082       .  S
C1119      C1120   1.350       .  D
C1120      H1132   1.083       .  S
C1120      C1121   1.494       .  S
C1121      C1122   1.405       .  A
C1121      C1126   1.411       .  A
C1122      C1123   1.398       .  A
C1122      H1133   1.083       .  S
C1123      C1124   1.404       .  A
C1123      H1134   1.082       .  S
C1124      C1125   1.405       .  A
C1125      C1126   1.399       .  A
C1125      H1135   1.083       .  S
C1126      H1136   1.079       .  S
C1137      C1138   1.411       .  A
C1137      C1142   1.413       .  A
C1138      C1139   1.402       .  A
C1138      H1151   1.083       .  S
C1139      C1140   1.402       .  A
C1139      H1152   1.083       .  S
C1140      C1143   1.490       .  S
C1140      C1141   1.405       .  A
C1141      C1142   1.402       .  A
C1141      H1153   1.083       .  S
C1142      H1154   1.077       .  S
C1143      H1155   1.086       .  S
C1143      C1144   1.349       .  D
C1144      H1156   1.086       .  S
C1144      C1145   1.491       .  S
C1145      C1146   1.403       .  A
C1145      C1150   1.404       .  A
C1146      C1147   1.402       .  A
C1146      H1157   1.083       .  S
C1147      C1148   1.410       .  A
C1147      H1158   1.083       .  S
C1148      C1149   1.414       .  A
C1149      C1150   1.400       .  A
C1149      H1159   1.076       .  S
C1150      H1160   1.082       .  S
C1161      C1162   1.405       .  A
C1161      C1166   1.405       .  A
C1162      C1163   1.400       .  A
C1162      H1175   1.083       .  S
C1163      C1164   1.404       .  A
C1163      H1176   1.083       .  S
C1164      C1167   1.489       .  S
C1164      C1165   1.408       .  A
C1165      C1166   1.399       .  A
C1165      H1177   1.082       .  S
C1166      H1178   1.083       .  S
C1167      H1179   1.084       .  S
C1167      C1168   1.349       .  D
C1168      H1180   1.086       .  S
C1168      C1169   1.492       .  S
C1169      C1170   1.405       .  A
C1169      C1174   1.409       .  A
C1170      C1171   1.399       .  A
C1170      H1181   1.083       .  S
C1171      C1172   1.405       .  A
C1171      H1182   1.082       .  S
C1172      C1173   1.405       .  A
C1173      C1174   1.401       .  A
C1173      H1183   1.082       .  S
C1174      H1184   1.081       .  S
C1185      C1186   1.405       .  A
C1185      C1190   1.405       .  A
C1186      C1187   1.401       .  A
C1186      H1199   1.083       .  S
C1187      C1188   1.404       .  A
C1187      H1200   1.083       .  S
C1188      C1191   1.486       .  S
C1188      C1189   1.406       .  A
C1189      C1190   1.400       .  A
C1189      H1201   1.083       .  S
C1190      H1202   1.083       .  S
C1191      H1203   1.086       .  S
C1191      C1192   1.348       .  D
C1192      H1204   1.087       .  S
C1192      C1193   1.486       .  S
C1193      C1194   1.401       .  A
C1193      C1198   1.404       .  A
C1194      C1195   1.398       .  A
C1194      H1205   1.083       .  S
C1195      C1196   1.410       .  A
C1195      H1206   1.081       .  S
C1196      C1197   1.411       .  A
C1197      C1198   1.402       .  A
C1197      H1207   1.080       .  S
C1198      H1208   1.083       .  S
C1209      C1210   1.406       .  A
C1209      C1214   1.407       .  A
C1210      C1211   1.398       .  A
C1210      H1223   1.083       .  S
C1211      C1212   1.401       .  A
C1211      H1224   1.083       .  S
C1212      C1215   1.486       .  S
C1212      C1213   1.408       .  A
C1213      C1214   1.405       .  A
C1213      H1225   1.083       .  S
C1214      H1226   1.083       .  S
C1215      H1227   1.087       .  S
C1215      C1216   1.345       .  D
C1216      H1228   1.087       .  S
C1216      C1217   1.488       .  S
C1217      C1218   1.403       .  A
C1217      C1222   1.406       .  A
C1218      C1219   1.402       .  A
C1218      H1229   1.083       .  S
C1219      C1220   1.408       .  A
C1219      H1230   1.082       .  S
C1220      C1221   1.407       .  A
C1221      C1222   1.400       .  A
C1221      H1231   1.082       .  S
C1222      H1232   1.083       .  S
C1233      C1234   1.404       .  A
C1233      C1238   1.406       .  A
C1234      C1235   1.401       .  A
C1234      H1247   1.083       .  S
C1235      C1236   1.407       .  A
C1235      H1248   1.083       .  S
C1236      C1239   1.495       .  S
C1236      C1237   1.408       .  A
C1237      C1238   1.397       .  A
C1237      H1249   1.080       .  S
C1238      H1250   1.082       .  S
C1239      H1251   1.084       .  S
C1239      C1240   1.352       .  D
C1240      H1252   1.083       .  S
C1240      C1241   1.493       .  S
C1241      C1242   1.406       .  A
C1241      C1246   1.409       .  A
C1242      C1243   1.400       .  A
C1242      H1253   1.083       .  S
C1243      C1244   1.404       .  A
C1243      H1254   1.083       .  S
C1244      C1245   1.405       .  A
C1245      C1246   1.400       .  A
C1245      H1255   1.083       .  S
C1246      H1256   1.081       .  S
C1257      C1258   1.404       .  A
C1257      C1262   1.405   1_556  A
C1258      C1259   1.394       .  A
C1258      H1271   1.083       .  S
C1259      C1260   1.402       .  A
C1259      H1272   1.084       .  S
C1260      C1263   1.484       .  S
C1260      C1261   1.409   1_556  A
C1261      C1262   1.404       .  A
C1261      H1273   1.082       .  S
C1262      H1274   1.083       .  S
C1263      H1275   1.086       .  S
C1263      C1264   1.347       .  D
C1264      H1276   1.086       .  S
C1264      C1265   1.487       .  S
C1265      C1266   1.405       .  A
C1265      C1270   1.406   1_556  A
C1266      C1267   1.403       .  A
C1266      H1277   1.083       .  S
C1267      C1268   1.405       .  A
C1267      H1278   1.083       .  S
C1268      C1269   1.404   1_556  A
C1269      C1270   1.395       .  A
C1269      H1279   1.083       .  S
C1270      H1280   1.082       .  S
C1281      C1282   1.404       .  A
C1281      C1286   1.405       .  A
C1282      C1283   1.397       .  A
C1282      H1295   1.083       .  S
C1283      C1284   1.403       .  A
C1283      H1296   1.083       .  S
C1284      C1287   1.487       .  S
C1284      C1285   1.408       .  A
C1285      C1286   1.401       .  A
C1285      H1297   1.082       .  S
C1286      H1298   1.083       .  S
C1287      H1299   1.087       .  S
C1287      C1288   1.346       .  D
C1288      H1300   1.085       .  S
C1288      C1289   1.484       .  S
C1289      C1290   1.402       .  A
C1289      C1294   1.407       .  A
C1290      C1291   1.400       .  A
C1290      H1301   1.083       .  S
C1291      C1292   1.405       .  A
C1291      H1302   1.083   1_565  S
C1292      C1293   1.404       .  A
C1293      C1294   1.399       .  A
C1293      H1303   1.083       .  S
C1294      H1304   1.083       .  S
C1305      C1306   1.406       .  A
C1305      C1310   1.404       .  A
C1306      C1307   1.401       .  A
C1306      H1319   1.083       .  S
C1307      C1308   1.404       .  A
C1307      H1320   1.083       .  S
C1308      C1311   1.487       .  S
C1308      C1309   1.407       .  A
C1309      C1310   1.398       .  A
C1309      H1321   1.082       .  S
C1310      H1322   1.083       .  S
C1311      H1323   1.085       .  S
C1311      C1312   1.348       .  D
C1312      H1324   1.086       .  S
C1312      C1313   1.488       .  S
C1313      C1314   1.404       .  A
C1313      C1318   1.408       .  A
C1314      C1315   1.398       .  A
C1314      H1325   1.083       .  S
C1315      C1316   1.404       .  A
C1315      H1326   1.083       .  S
C1316      C1317   1.404       .  A
C1317      C1318   1.401       .  A
C1317      H1327   1.083       .  S
C1318      H1328   1.082       .  S
C1329      C1330   1.404       .  A
C1329      C1334   1.404   1_554  A
C1330      C1331   1.395       .  A
C1330      H1343   1.083       .  S
C1331      C1332   1.402       .  A
C1331      H1344   1.083       .  S
C1332      C1335   1.484       .  S
C1332      C1333   1.409   1_554  A
C1333      C1334   1.400       .  A
C1333      H1345   1.082       .  S
C1334      H1346   1.083       .  S
C1335      H1347   1.086       .  S
C1335      C1336   1.345   1_554  D
C1336      H1348   1.086       .  S
C1336      C1337   1.483       .  S
C1337      C1338   1.401       .  A
C1337      C1342   1.408   1_556  A
C1338      C1339   1.395       .  A
C1338      H1349   1.083       .  S
C1339      C1340   1.404       .  A
C1339      H1350   1.083       .  S
C1340      C1341   1.404   1_556  A
C1341      C1342   1.400       .  A
C1341      H1351   1.083       .  S
C1342      H1352   1.082       .  S
C1353      C1354   1.405       .  A
C1353      C1358   1.406       .  A
C1354      C1355   1.398       .  A
C1354      H1367   1.083       .  S
C1355      C1356   1.404       .  A
C1355      H1368   1.083       .  S
C1356      C1359   1.490       .  S
C1356      C1357   1.409       .  A
C1357      C1358   1.403       .  A
C1357      H1369   1.082       .  S
C1358      H1370   1.083       .  S
C1359      H1371   1.085       .  S
C1359      C1360   1.350       .  D
C1360      H1372   1.086       .  S
C1360      C1361   1.493       .  S
C1361      C1362   1.403       .  A
C1361      C1366   1.407       .  A
C1362      C1363   1.400       .  A
C1362      H1373   1.083       .  S
C1363      C1364   1.411       .  A
C1363      H1374   1.081       .  S
C1364      C1365   1.408       .  A
C1365      C1366   1.400       .  A
C1365      H1375   1.077       .  S
C1366      H1376   1.082       .  S
C1377      C1378   1.405       .  A
C1377      C1382   1.407       .  A
C1378      C1379   1.399       .  A
C1378      H1391   1.083       .  S
C1379      C1380   1.403       .  A
C1379      H1392   1.083       .  S
C1380      C1383   1.490       .  S
C1380      C1381   1.409       .  A
C1381      C1382   1.405       .  A
C1381      H1393   1.082       .  S
C1382      H1394   1.083       .  S
C1383      H1395   1.087       .  S
C1383      C1384   1.348       .  D
C1384      H1396   1.086       .  S
C1384      C1385   1.490       .  S
C1385      C1386   1.404       .  A
C1385      C1390   1.407       .  A
C1386      C1387   1.402       .  A
C1386      H1397   1.083       .  S
C1387      C1388   1.406       .  A
C1387      H1398   1.083       .  S
C1388      C1389   1.407       .  A
C1389      C1390   1.400       .  A
C1389      H1399   1.083       .  S
C1390      H1400   1.082       .  S
C1401      C1402   1.404       .  A
C1401      C1406   1.404   1_554  A
C1402      C1403   1.396       .  A
C1402      H1415   1.083       .  S
C1403      C1404   1.402       .  A
C1403      H1416   1.083       .  S
C1404      C1407   1.486       .  S
C1404      C1405   1.409   1_554  A
C1405      C1406   1.401       .  A
C1405      H1417   1.082       .  S
C1406      H1418   1.083       .  S
C1407      H1419   1.086       .  S
C1407      C1408   1.346   1_554  D
C1408      H1420   1.085       .  S
C1408      C1409   1.486       .  S
C1409      C1410   1.402       .  A
C1409      C1414   1.409   1_556  A
C1410      C1411   1.397       .  A
C1410      H1421   1.083       .  S
C1411      C1412   1.404       .  A
C1411      H1422   1.083       .  S
C1412      C1413   1.404   1_556  A
C1413      C1414   1.400       .  A
C1413      H1423   1.083       .  S
C1414      H1424   1.082       .  S
C1425      C1426   1.405       .  A
C1425      C1430   1.405   1_556  A
C1426      C1427   1.396       .  A
C1426      H1439   1.083       .  S
C1427      C1428   1.401       .  A
C1427      H1440   1.083       .  S
C1428      C1431   1.481       .  S
C1428      C1429   1.407   1_556  A
C1429      C1430   1.399       .  A
C1429      H1441   1.082       .  S
C1430      H1442   1.083       .  S
C1431      H1443   1.087       .  S
C1431      C1432   1.343   1_556  D
C1432      H1444   1.086       .  S
C1432      C1433   1.480       .  S
C1433      C1434   1.400       .  A
C1433      C1438   1.408   1_554  A
C1434      C1435   1.394       .  A
C1434      H1445   1.083       .  S
C1435      C1436   1.404   1_554  A
C1435      H1446   1.083       .  S
C1436      C1437   1.405       .  A
C1437      C1438   1.401       .  A
C1437      H1447   1.083       .  S
C1438      H1448   1.083       .  S
