geometry optimzed in LAMMPS
_audit_creation_date              2020-11-30 
_audit_creation_method            'lammps2cif' 
_symmetry_space_group_name_H-M    'P1' 
_symmetry_Int_Tables_number       1 
_symmetry_cell_setting            triclinic 
loop_ 
_symmetry_equiv_pos_as_xyz 
  x,y,z 
_cell_length_a                    29.37792388 
_cell_length_b                    26.275569082865044 
_cell_length_c                    46.30709798454344 
_cell_angle_alpha                 90.00057847802354 
_cell_angle_beta                  90.0005564015067 
_cell_angle_gamma                 89.99713431361765 
loop_ 
_atom_site_label 
_atom_site_type_symbol 
_atom_site_fract_x 
_atom_site_fract_y 
_atom_site_fract_z 
_atom_site_charge 
C1          C  0.63408525  0.48060289  0.26883450     0.80600
N2          N  0.65927460  0.50897517  0.28731249    -0.77700
C3          C  0.69724852  0.48966944  0.29973866     0.83000
N4          N  0.71068635  0.44150435  0.29334455    -0.77700
C5          C  0.68597858  0.41265984  0.27459590     0.83100
N6          N  0.64715970  0.43207472  0.26268150    -0.79400
C7          C  0.63429736  0.48153335  0.48158606     0.80600
N8          N  0.64741465  0.43294893  0.48753116    -0.77700
C9          C  0.68607670  0.41362282  0.47538132     0.83000
N10         N  0.71056783  0.44257234  0.45661079    -0.77700
C11         C  0.69706904  0.49075450  0.45039180     0.83100
N12         N  0.65925829  0.51003478  0.46304295    -0.79400
N13         N  0.72941497  0.52905423  0.37501465    -0.36200
N14         N  0.74412908  0.60794395  0.41834542    -0.56800
N15         N  0.76426773  0.68477380  0.37479944    -0.36200
N16         N  0.74446791  0.60712887  0.33144871    -0.56800
C17         C  0.71032688  0.50723430  0.39849386     0.27300
C18         C  0.71056976  0.50674250  0.35159646     0.27300
C19         C  0.75742967  0.71432169  0.39841046     0.27300
C20         C  0.75743562  0.71395754  0.35105554     0.27300
C21         C  0.74145290  0.56604004  0.43522643     0.36000
C22         C  0.76151819  0.64534219  0.43509861     0.36000
C23         C  0.74183487  0.56505313  0.31467902     0.36000
C24         C  0.76165528  0.64448756  0.31457907     0.36000
C25         C  0.68014248  0.46954523  0.38993410    -0.21500
C26         C  0.68030082  0.46922959  0.36028098    -0.21500
C27         C  0.74767238  0.76358613  0.38956640    -0.21500
C28         C  0.74767753  0.76335976  0.35967589    -0.21500
C29         C  0.75711395  0.57659280  0.46263260    -0.22600
C30         C  0.77027883  0.62645827  0.46258644    -0.22600
C31         C  0.75735312  0.57546722  0.28722420    -0.22600
C32         C  0.77033803  0.62540938  0.28712141    -0.22600
C33         C  0.71947513  0.52053610  0.42738423    -0.17900
C34         C  0.71991981  0.51953879  0.32265432    -0.17900
C35         C  0.76113806  0.69682100  0.32202608    -0.17900
C36         C  0.76111622  0.69757996  0.42751260    -0.17900
H37         H  0.65955478  0.44529455  0.40358463     0.15000
H38         H  0.65985449  0.44469473  0.34670826     0.15000
H39         H  0.74132718  0.79633989  0.40315145     0.15000
H40         H  0.74134514  0.79592375  0.34594272     0.15000
H41         H  0.75789548  0.55129441  0.48090289     0.13300
H42         H  0.78351059  0.64628940  0.48116187     0.13300
H43         H  0.75812060  0.55003751  0.26901410     0.13300
H44         H  0.78337122  0.64517601  0.26846621     0.13300
H45         H  0.75450413  0.55698005  0.37499226     0.26500
H46         H  0.77433683  0.64683585  0.37487619     0.26500
C47         C  0.63473512  0.57040935  0.23135254     0.80600
N48         N  0.65965263  0.54172204  0.21288352    -0.77700
C49         C  0.69770229  0.56070487  0.20038036     0.83000
N50         N  0.71147478  0.60875993  0.20666184    -0.77700
C51         C  0.68701619  0.63787016  0.22536342     0.83100
N52         N  0.64812351  0.61886070  0.23736084    -0.79400
C53         C  0.63468022  0.57133164  0.01908146     0.80600
N54         N  0.64802919  0.61971904  0.01284829    -0.77700
C55         C  0.68707597  0.63882940  0.02460483     0.83000
N56         N  0.71174487  0.60983942  0.04329867    -0.77700
C57         C  0.69802935  0.56180653  0.04977187     0.83100
N58         N  0.65981842  0.54279100  0.03749772    -0.79400
N59         N  0.72989283  0.52229420  0.12503755    -0.36200
N60         N  0.74396094  0.44327790  0.16834438    -0.56800
N61         N  0.76335112  0.36624697  0.12482214    -0.36200
N62         N  0.74441541  0.44411657  0.08148885    -0.56800
C63         C  0.71079969  0.54412843  0.14850317     0.27300
C64         C  0.71109931  0.54463296  0.10161905     0.27300
C65         C  0.75617724  0.33679330  0.14842803     0.27300
C66         C  0.75626358  0.33717399  0.10106766     0.27300
C67         C  0.74174516  0.48523310  0.18520134     0.36000
C68         C  0.76105500  0.40571834  0.18509342     0.36000
C69         C  0.74229787  0.48626263  0.06475578     0.36000
C70         C  0.76137730  0.40661670  0.06463591     0.36000
C71         C  0.68062438  0.58182759  0.13993954    -0.21500
C72         C  0.68081763  0.58215040  0.11028659    -0.21500
C73         C  0.74592203  0.28766457  0.13957198    -0.21500
C74         C  0.74597908  0.28790047  0.10967740    -0.21500
C75         C  0.75743030  0.47457585  0.21258577    -0.22600
C76         C  0.77010418  0.42455661  0.21255877    -0.22600
C77         C  0.75794598  0.47577775  0.03734113    -0.22600
C78         C  0.77044094  0.42567817  0.03721866    -0.22600
C79         C  0.71999282  0.53085581  0.17738102    -0.17900
C80         C  0.72056837  0.53188418  0.07269538    -0.17900
C81         C  0.76025422  0.35428591  0.07204571    -0.17900
C82         C  0.76006259  0.35349034  0.17753005    -0.17900
H83         H  0.66004629  0.60609695  0.15358754     0.15000
H84         H  0.66041420  0.60671235  0.09670206     0.15000
H85         H  0.73923851  0.25498815  0.15315027     0.15000
H86         H  0.73935672  0.25541955  0.09593673     0.15000
H87         H  0.75853960  0.49991135  0.23083060     0.13300
H88         H  0.78319072  0.40463325  0.23114346     0.13300
H89         H  0.75911056  0.50127403  0.01916800     0.13300
H90         H  0.78338614  0.40583217  0.01856430     0.13300
H91         H  0.75499191  0.49436178  0.12502429     0.26500
H92         H  0.77384007  0.40404638  0.12490919     0.26500
C93         C  0.46013454  0.52745581  0.25007873     0.03900
S94         S  0.42745055  0.47512779  0.26431677    -0.10100
C95         C  0.37411613  0.50571782  0.25675263    -0.01300
C96         C  0.37448224  0.55134477  0.24353343    -0.01300
S97         S  0.42839133  0.58048170  0.23573113    -0.10100
C98         C  0.59233345  0.54866988  0.24345824    -0.01300
C99         C  0.59197173  0.50304388  0.25667916    -0.01300
S100        S  0.53806414  0.47390797  0.26449067    -0.10100
C101        C  0.50631644  0.52693458  0.25014823     0.03900
S102        S  0.53899647  0.57926662  0.23591183    -0.10100
C103        C  0.33237128  0.57378989  0.23137682     0.80600
N104        N  0.31929922  0.62231881  0.23753062    -0.77700
C105        C  0.28048319  0.64173874  0.22561526     0.83000
N106        N  0.25577426  0.61289459  0.20686508    -0.77700
C107        C  0.26920914  0.56472654  0.20047059     0.83100
N108        N  0.30718231  0.54542000  0.21289713    -0.79400
C109        C  0.33232083  0.57286994  0.01860489     0.80600
N110        N  0.31920899  0.62146026  0.01267050    -0.77700
C111        C  0.28055678  0.64078969  0.02483097     0.83000
N112        N  0.25607042  0.61183592  0.04360196    -0.77700
C113        C  0.26956723  0.56364972  0.04981362     0.83100
N114        N  0.30736754  0.54436573  0.03715116    -0.79400
N115        N  0.23713914  0.52534334  0.12517605    -0.36200
N116        N  0.22200287  0.44728483  0.16873266    -0.56800
N117        N  0.20224357  0.36964212  0.12536743    -0.36200
N118        N  0.22243965  0.44646433  0.08183645    -0.56800
C119        C  0.25596836  0.54763935  0.14860442     0.27300
C120        C  0.25627795  0.54714064  0.10170686     0.27300
C121        C  0.20905385  0.34046076  0.14911430     0.27300
C122        C  0.20911246  0.34009431  0.10175976     0.27300
C123        C  0.22460446  0.48936416  0.18550193     0.36000
C124        C  0.20477460  0.40993038  0.18558822     0.36000
C125        C  0.22516049  0.48836496  0.06495637     0.36000
C126        C  0.20507078  0.40907111  0.06507133     0.36000
C127        C  0.28628489  0.58511531  0.13993568    -0.21500
C128        C  0.28648501  0.58479552  0.11028234    -0.21500
C129        C  0.21883085  0.29106044  0.14049822    -0.21500
C130        C  0.21886820  0.29083277  0.11060796    -0.21500
C131        C  0.20902107  0.47895898  0.21294334    -0.22600
C132        C  0.19603443  0.42901456  0.21303778    -0.22600
C133        C  0.20954395  0.47781512  0.03753959    -0.22600
C134        C  0.19636260  0.42795611  0.03757749    -0.22600
C135        C  0.24655520  0.53486611  0.17754192    -0.17900
C136        C  0.24714962  0.53385508  0.07281157    -0.17900
C137        C  0.20545684  0.35683373  0.07265631    -0.17900
C138        C  0.20531137  0.35759606  0.17814207    -0.17900
H139        H  0.30673203  0.60963031  0.15351944     0.15000
H140        H  0.30711248  0.60902182  0.09664200     0.15000
H141        H  0.22515388  0.25849751  0.15423375     0.15000
H142        H  0.22523562  0.25808077  0.09702577     0.15000
H143        H  0.20821311  0.50439473  0.23115142     0.13300
H144        H  0.18296413  0.40924960  0.23168387     0.13300
H145        H  0.20881174  0.50310577  0.01926628     0.13300
H146        H  0.18316124  0.40812761  0.01899260     0.13300
H147        H  0.21202197  0.49744751  0.12518482     0.26500
H148        H  0.19216785  0.40757865  0.12528703     0.26500
C149        C  0.33170785  0.48398081  0.26884836     0.80600
N150        N  0.31830896  0.43553895  0.26282676    -0.77700
C151        C  0.27940644  0.41653506  0.27481366     0.83000
N152        N  0.25494529  0.44564265  0.29351598    -0.77700
C153        C  0.26872700  0.49369052  0.29980840     0.83100
N154        N  0.30678978  0.51266489  0.28731806    -0.79400
C155        C  0.33192174  0.48307632  0.48109677     0.80600
N156        N  0.31857453  0.43468654  0.48732703    -0.77700
C157        C  0.27952563  0.41557811  0.47557166     0.83000
N158        N  0.25485245  0.44457078  0.45688298    -0.77700
C159        C  0.26856562  0.49260320  0.45041059     0.83100
N160        N  0.30677929  0.51161939  0.46268287    -0.79400
N161        N  0.23659784  0.53210100  0.37516043    -0.36200
N162        N  0.22215600  0.61029988  0.41871122    -0.56800
N163        N  0.20318736  0.68817826  0.37539113    -0.36200
N164        N  0.22250823  0.61112626  0.33186079    -0.56800
C165        C  0.25541054  0.50975583  0.39856989     0.27300
C166        C  0.25564747  0.51024853  0.35168704     0.27300
C167        C  0.21030224  0.71725011  0.39914239     0.27300
C168        C  0.21033195  0.71762763  0.35178114     0.27300
C169        C  0.22429786  0.56815776  0.43544624     0.36000
C170        C  0.20523328  0.64780596  0.43557588     0.36000
C171        C  0.22470777  0.56917200  0.31500042     0.36000
C172        C  0.20541988  0.64869582  0.31511546     0.36000
C173        C  0.28565320  0.47220931  0.38988950    -0.21500
C174        C  0.28580683  0.47252426  0.36023746    -0.21500
C175        C  0.22057183  0.76652438  0.39052767    -0.21500
C176        C  0.22059276  0.76675883  0.36063265    -0.21500
C177        C  0.20870224  0.57865111  0.46287100    -0.22600
C178        C  0.19621530  0.62875020  0.46300003    -0.22600
C179        C  0.20901982  0.57983937  0.28761829    -0.22600
C180        C  0.19635940  0.62986263  0.28765002    -0.22600
C181        C  0.24600413  0.52252916  0.42749735    -0.17900
C182        C  0.24644319  0.52353434  0.32281326    -0.17900
C183        C  0.20642116  0.70092601  0.32268015    -0.17900
C184        C  0.20635257  0.70013637  0.42816632    -0.17900
H185        H  0.30606262  0.44763746  0.40346466     0.15000
H186        H  0.30635486  0.44823755  0.34658126     0.15000
H187        H  0.22721099  0.79900500  0.40426539     0.15000
H188        H  0.22725938  0.79943583  0.34705140     0.15000
H189        H  0.20756802  0.55316096  0.48104629     0.13300
H190        H  0.18330680  0.64859891  0.48166319     0.13300
H191        H  0.20790067  0.55450627  0.26937125     0.13300
H192        H  0.18327329  0.64979072  0.26906703     0.13300
H193        H  0.21152017  0.56005893  0.37518497     0.26500
H194        H  0.19270167  0.65037644  0.37530877     0.26500
C195        C  0.50639223  0.52694156  0.00030883     0.03900
S196        S  0.53845573  0.47391022  0.48630856    -0.10100
C197        C  0.59216201  0.50368557  0.49386175    -0.01300
C198        C  0.59229801  0.54929778  0.00710100    -0.01300
S199        S  0.53874960  0.57921464  0.01495506    -0.10100
C200        C  0.37444806  0.55071957  0.00631839    -0.01300
C201        C  0.37430710  0.50510806  0.49307780    -0.01300
S202        S  0.42785500  0.47518326  0.48522915    -0.10100
C203        C  0.46021563  0.52746093  0.99986809     0.03900
S204        S  0.42815546  0.58049873  0.01386254    -0.10100
C205        C  0.83237870  0.98059677  0.26880027     0.80600
N206        N  0.81929549  0.93207376  0.26264497    -0.77700
C207        C  0.78048253  0.91266316  0.27456666     0.83000
N208        N  0.75578807  0.94150997  0.29332417    -0.77700
C209        C  0.76923474  0.98967189  0.29971988     0.83100
N210        N  0.80720425  0.00896963  0.28728731    -0.79400
C211        C  0.83232382  0.98151929  0.48160119     0.80600
N212        N  0.81920232  0.93293376  0.48753551    -0.77700
C213        C  0.78055424  0.91361272  0.47536675     0.83000
N214        N  0.75608221  0.94256873  0.45658817    -0.77700
C215        C  0.76958927  0.99074948  0.45037699     0.83100
N216        N  0.80738454  0.01002606  0.46304728    -0.79400
N217        N  0.73717205  0.02906828  0.37501413    -0.36200
N218        N  0.72247972  0.10795065  0.41835603    -0.56800
N219        N  0.70227352  0.18477455  0.37482404    -0.36200
N220        N  0.72204871  0.10713050  0.33145667    -0.56800
C221        C  0.75630387  0.00726255  0.39848373     0.27300
C222        C  0.75599600  0.00676371  0.35158632     0.27300
C223        C  0.70914044  0.21432211  0.39843219     0.27300
C224        C  0.70908228  0.21395581  0.35107705     0.27300
C225        C  0.72520050  0.06604940  0.43523581     0.36000
C226        C  0.70511188  0.14534513  0.43512188     0.36000
C227        C  0.72464834  0.06505084  0.31468718     0.36000
C228        C  0.70481679  0.14448575  0.31460162     0.36000
C229        C  0.78650078  0.96959386  0.38990906    -0.21500
C230        C  0.78630166  0.96927397  0.36025584    -0.21500
C231        C  0.71889229  0.26358360  0.38958406    -0.21500
C232        C  0.71885491  0.26335612  0.35969348    -0.21500
C233        C  0.70958817  0.07660117  0.46265351    -0.22600
C234        C  0.69640653  0.12646087  0.46261605    -0.22600
C235        C  0.70906371  0.07545762  0.28724575    -0.22600
C236        C  0.69607456  0.12540227  0.28715208    -0.22600
C237        C  0.74717984  0.02055238  0.42737889    -0.17900
C238        C  0.74658897  0.01954135  0.32264852    -0.17900
C239        C  0.70534586  0.19681969  0.32204870    -0.17900
C240        C  0.70549010  0.19758210  0.42753613    -0.17900
H241        H  0.80712102  0.94535802  0.40354987     0.11800
H242        H  0.80674244  0.94474936  0.34667269     0.15000
H243        H  0.72526000  0.29633431  0.40316649     0.15000
H244        H  0.72517818  0.29591793  0.34595796     0.15000
H245        H  0.70885822  0.05131135  0.48092720     0.13300
H246        H  0.68320537  0.14628967  0.48120141     0.13300
H247        H  0.70825442  0.05002241  0.26903737     0.13300
H248        H  0.68299936  0.14516718  0.26850664     0.13300
H249        H  0.71206277  0.05697617  0.37500488     0.26500
H250        H  0.69220284  0.14683742  0.37490395     0.26500
C251        C  0.83191987  0.07131512  0.01910958     0.80600
N252        N  0.81858357  0.11971057  0.01288006    -0.77700
C253        C  0.77953218  0.13882861  0.02462861     0.83000
N254        N  0.75484516  0.10983919  0.04331010    -0.77700
C255        C  0.76854770  0.06180122  0.04978237     0.83100
N256        N  0.80676465  0.04277621  0.03751685    -0.79400
C257        C  0.83170969  0.07040584  0.23132847     0.80600
N258        N  0.80677629  0.04172528  0.21286629    -0.77700
C259        C  0.76870846  0.06070818  0.20038369     0.83000
N260        N  0.75493869  0.10876199  0.20667612    -0.77700
C261        C  0.77941639  0.13786677  0.22537036     0.83100
N262        N  0.81832289  0.11885353  0.23734937    -0.79400
N263        N  0.73657344  0.02230962  0.12503106    -0.36200
N264        N  0.72247944  0.94328774  0.16832953    -0.56800
N265        N  0.70316842  0.86623767  0.12479724    -0.36200
N266        N  0.72213064  0.94411559  0.08147853    -0.56800
C267        C  0.75562749  0.04415229  0.14850502     0.27300
C268        C  0.75539099  0.04464684  0.10162225     0.27300
C269        C  0.71031464  0.83679027  0.14840739     0.27300
C270        C  0.71028683  0.83716824  0.10104602     0.27300
C271        C  0.72467301  0.98524265  0.18518938     0.36000
C272        C  0.70538429  0.90572126  0.18507234     0.36000
C273        C  0.72426703  0.98625977  0.06474526     0.36000
C274        C  0.70520527  0.90661284  0.06461384     0.36000
C275        C  0.78579844  0.08186170  0.13995546    -0.21500
C276        C  0.78564503  0.08217791  0.11030358    -0.21500
C277        C  0.72058371  0.78765984  0.13955601    -0.21500
C278        C  0.72056372  0.78789453  0.10966091    -0.21500
C279        C  0.70897321  0.97457986  0.21256885    -0.22600
C280        C  0.69631239  0.92455748  0.21253598    -0.22600
C281        C  0.70866414  0.97577186  0.03732158    -0.22600
C282        C  0.69617987  0.92567285  0.03719112    -0.22600
C283        C  0.74641624  0.03087352  0.17737867    -0.17900
C284        C  0.74597842  0.03188240  0.07269439    -0.17900
C285        C  0.70632980  0.85428190  0.07202227    -0.17900
C286        C  0.70639372  0.85349097  0.17750809    -0.17900
H287        H  0.80635293  0.10613884  0.15361215     0.15000
H288        H  0.80606111  0.10674121  0.09672919     0.15000
H289        H  0.72725253  0.75498253  0.15313715     0.15000
H290        H  0.72720603  0.75541365  0.09592347     0.15000
H291        H  0.70784535  0.99991563  0.23081467     0.13300
H292        H  0.68321942  0.90463172  0.23111743     0.13300
H293        H  0.70752251  0.00126579  0.01914811     0.13300
H294        H  0.68326834  0.90582713  0.01852796     0.13300
H295        H  0.71148659  0.99436260  0.12500558     0.26500
H296        H  0.69267569  0.90403965  0.12487957     0.26500
C297        C  0.00631767  0.02747614  0.25007185     0.03900
S298        S  0.03805653  0.08051774  0.23574549    -0.10100
C299        C  0.09196629  0.05137307  0.24354297    -0.01300
C300        C  0.09233681  0.00574734  0.25676389    -0.01300
S301        S  0.03900394  0.97515951  0.26432576    -0.10100
C302        C  0.87448710  0.00303223  0.25663848    -0.01300
C303        C  0.87411956  0.04865877  0.24341883    -0.01300
S304        S  0.92745146  0.07924971  0.23585970    -0.10100
C305        C  0.96013666  0.02693535  0.25011693     0.03900
S306        S  0.92839697  0.97389598  0.26444638    -0.10100
C307        C  0.13474748  0.98400565  0.26885890     0.80600
N308        N  0.15967484  0.01269168  0.28732195    -0.77700
C309        C  0.19773791  0.99371066  0.29981193     0.83000
N310        N  0.21151259  0.94565764  0.29352432    -0.77700
C311        C  0.18704319  0.91654785  0.27482942     0.83100
N312        N  0.14813843  0.93555623  0.26284422    -0.79400
C313        C  0.13468927  0.98308598  0.48108969     0.80600
N314        N  0.15983620  0.01162616  0.46267972    -0.77700
C315        C  0.19805894  0.99261258  0.45041771     0.83000
N316        N  0.21177625  0.94458095  0.45689554    -0.77700
C317        C  0.18709827  0.91559030  0.47558222     0.83100
N318        N  0.14804083  0.93469945  0.48732779    -0.79400
N319        N  0.22992959  0.03211494  0.37515406    -0.36200
N320        N  0.24397497  0.11113646  0.33184842    -0.56800
N321        N  0.26333226  0.18817766  0.37536989    -0.36200
N322        N  0.24442697  0.11030149  0.41870180    -0.56800
C323        C  0.21084503  0.01027559  0.35168823     0.27300
C324        C  0.21114146  0.00977347  0.39857185     0.27300
C325        C  0.25615349  0.21762765  0.35176337     0.27300
C326        C  0.25624149  0.21724847  0.39912444     0.27300
C327        C  0.24177579  0.06917915  0.31499232     0.36000
C328        C  0.26105951  0.14869977  0.31509978     0.36000
C329        C  0.24232378  0.06815343  0.43543388     0.36000
C330        C  0.26138154  0.14780409  0.43555478     0.36000
C331        C  0.18068142  0.97256762  0.36025105    -0.21500
C332        C  0.18087262  0.97224639  0.38990381    -0.21500
C333        C  0.24588933  0.26675587  0.36061907    -0.21500
C334        C  0.24594766  0.26652104  0.39051411    -0.21500
C335        C  0.25746291  0.07983771  0.28760921    -0.22600
C336        C  0.27011991  0.12986081  0.28763564    -0.22600
C337        C  0.25797462  0.07863880  0.46284751    -0.22600
C338        C  0.27045563  0.12874135  0.46297093    -0.22600
C339        C  0.22003338  0.02355283  0.32281101    -0.17900
C340        C  0.22060262  0.02252901  0.42749528    -0.17900
C341        C  0.26024205  0.20013579  0.42814631    -0.17900
C342        C  0.26004745  0.20092861  0.32266170    -0.17900
H343        H  0.16011158  0.94829182  0.34660278     0.15000
H344        H  0.16047559  0.94767931  0.40348773     0.15000
H345        H  0.23920206  0.29943194  0.34704053     0.15000
H346        H  0.23932268  0.29900254  0.40425431     0.15000
H347        H  0.25858587  0.05449927  0.26936588     0.13300
H348        H  0.28320277  0.14978467  0.26905080     0.13300
H349        H  0.25915195  0.05313962  0.48101897     0.13300
H350        H  0.28339870  0.14858686  0.48162564     0.13300
H351        H  0.25501939  0.06005607  0.37516801     0.26500
H352        H  0.27383016  0.15037947  0.37528313     0.26500
C353        C  0.13406917  0.07381096  0.23137661     0.80600
N354        N  0.15924704  0.04543809  0.21289157    -0.77700
C355        C  0.19720797  0.06474508  0.20045283     0.83000
N356        N  0.21064450  0.11291190  0.20684161    -0.77700
C357        C  0.18594747  0.14175649  0.22559739     0.83100
N358        N  0.14714145  0.12234011  0.23752417    -0.79400
C359        C  0.13428169  0.07288613  0.01858417     0.80600
N360        N  0.15923145  0.04438409  0.03713454    -0.77700
C361        C  0.19703115  0.06366397  0.04979728     0.83000
N362        N  0.21053032  0.11184654  0.04358286    -0.77700
C363        C  0.18604961  0.14079671  0.02480523     0.83100
N364        N  0.14739847  0.12147066  0.01264353    -0.79400
N365        N  0.22936618  0.02534998  0.12517568    -0.36200
N366        N  0.24444413  0.94728373  0.16874298    -0.56800
N367        N  0.26427512  0.86964772  0.12538913    -0.36200
N368        N  0.24410755  0.94647088  0.08184164    -0.56800
C369        C  0.21051533  0.04765803  0.14859391     0.27300
C370        C  0.21027418  0.04716788  0.10169603     0.27300
C371        C  0.25745460  0.84046034  0.14913275     0.27300
C372        C  0.25744774  0.84009710  0.10177796     0.27300
C373        C  0.24179837  0.98935802  0.18551313     0.36000
C374        C  0.26164687  0.90992985  0.18561117     0.36000
C375        C  0.24141800  0.98837424  0.06496090     0.36000
C376        C  0.26150722  0.90907709  0.06508854     0.36000
C377        C  0.18023574  0.08516340  0.13990895    -0.21500
C378        C  0.18007858  0.08484891  0.11025569    -0.21500
C379        C  0.24771594  0.79105460  0.14051206    -0.21500
C380        C  0.24771006  0.79082885  0.11062167    -0.21500
C381        C  0.25732230  0.97894723  0.21296781    -0.22600
C382        C  0.27032601  0.92900909  0.21306898    -0.22600
C383        C  0.25707956  0.97782464  0.03755405    -0.22600
C384        C  0.27026012  0.92796244  0.03760041    -0.22600
C385        C  0.21987296  0.03486850  0.17753657    -0.17900
C386        C  0.21943152  0.03387466  0.07280520    -0.17900
C387        C  0.26112457  0.85683968  0.07267570    -0.17900
C388        C  0.26114820  0.85759699  0.17816258    -0.17900
H389        H  0.15978346  0.10969426  0.15348150     0.15000
H390        H  0.15948603  0.10909672  0.09660487     0.15000
H391        H  0.24139577  0.75848836  0.15424508     0.15000
H392        H  0.24137633  0.75807319  0.09703634     0.15000
H393        H  0.25808062  0.00437544  0.23117896     0.13300
H394        H  0.28336901  0.90924423  0.23172291     0.13300
H395        H  0.25784963  0.00312157  0.01928294     0.13300
H396        H  0.28349691  0.90813307  0.01902528     0.13300
H397        H  0.25446415  0.99743135  0.12519822     0.26500
H398        H  0.27432783  0.90758979  0.12531278     0.26500
C399        C  0.00639042  0.02747195  0.49985726     0.03900
S400        S  0.03875313  0.97521238  0.48519581    -0.10100
C401        C  0.09229894  0.00512280  0.49306060    -0.01300
C402        C  0.09215533  0.05073680  0.00629815    -0.01300
S403        S  0.03844678  0.08051975  0.01383884    -0.10100
C404        C  0.87430659  0.04927309  0.00713415    -0.01300
C405        C  0.87444862  0.00366099  0.49389380    -0.01300
S406        S  0.92815736  0.97388094  0.48634722    -0.10100
C407        C  0.96021487  0.02693270  0.50032282     0.03900
S408        S  0.92785339  0.07919644  0.01498031    -0.10100
O409        O  0.68382266  0.81484215  0.22208860    -0.74100
O410        O  0.71516268  0.75418662  0.29486127    -0.74100
O411        O  0.72272250  0.84918622  0.27164111    -0.74200
O412        O  0.67655465  0.72012660  0.24591807    -0.74200
O413        O  0.74492391  0.70123325  0.22793445    -0.74100
O414        O  0.79115282  0.83040261  0.25373300    -0.74100
O415        O  0.78389243  0.73538429  0.27743188    -0.74100
O416        O  0.75258536  0.79622459  0.20466442    -0.74200
Ni417      Ni  0.69715043  0.78539449  0.25919647     1.25400
Ni418      Ni  0.77058176  0.76501944  0.24036118     1.25400
C419        C  0.71371845  0.81774491  0.20195795     0.88100
C420        C  0.75395961  0.73250456  0.29754115     0.88000
C421        C  0.76419043  0.86146970  0.26647068     0.88100
C422        C  0.70346532  0.68901273  0.23322197     0.88200
O423        O  0.29116879  0.72399897  0.24644832    -0.74100
O424        O  0.24494930  0.85317637  0.27225251    -0.74100
O425        O  0.25261243  0.75818345  0.29552101    -0.74200
O426        O  0.28391080  0.81902343  0.22275305    -0.74200
O427        O  0.21517686  0.80023454  0.20532707    -0.74100
O428        O  0.18384514  0.73958068  0.27810082    -0.74100
O429        O  0.17657583  0.83429599  0.25427278    -0.74100
O430        O  0.22273355  0.70523219  0.22854408    -0.74200
Ni431      Ni  0.27060384  0.78938656  0.25982331     1.25400
Ni432      Ni  0.19716793  0.76902714  0.24099201     1.25400
C433        C  0.26420094  0.69293833  0.23371177     0.88100
C434        C  0.20348995  0.86540416  0.26696793     0.88000
C435        C  0.21374389  0.73667234  0.29823015     0.88100
C436        C  0.25397437  0.82191056  0.20264587     0.88200
O437        O  0.28390645  0.81810647  0.02812980    -0.74100
O438        O  0.25260361  0.75719213  0.45538821    -0.74100
O439        O  0.24499761  0.85223227  0.47853668    -0.74200
O440        O  0.29121627  0.72318523  0.00437559    -0.74200
O441        O  0.22279234  0.70429738  0.02226918    -0.74100
O442        O  0.17662464  0.83348380  0.49654499    -0.74100
O443        O  0.18382227  0.73862143  0.47280496    -0.74100
O444        O  0.21520168  0.79928116  0.04557873    -0.74200
Ni445      Ni  0.27061362  0.78848058  0.49104227     1.25400
Ni446      Ni  0.19718498  0.76812525  0.00988378     1.25400
C447        C  0.25399510  0.82096583  0.04825865     0.88100
C448        C  0.21373228  0.73568143  0.45268947     0.88000
C449        C  0.20352918  0.86450031  0.48373371     0.88100
C450        C  0.26424884  0.69203959  0.01701046     0.88200
O451        O  0.72278110  0.85011978  0.47792136    -0.74100
O452        O  0.67660570  0.72093855  0.00364195    -0.74100
O453        O  0.68380204  0.81580320  0.02738177    -0.74200
O454        O  0.71518684  0.75513816  0.45460973    -0.74200
O455        O  0.78388937  0.73630422  0.47206234    -0.74100
O456        O  0.75257862  0.79721538  0.04480369    -0.74100
O457        O  0.74497650  0.70217773  0.02165301    -0.74100
O458        O  0.79119998  0.83121749  0.49582163    -0.74200
Ni459      Ni  0.69716813  0.78629586  0.49030424     1.25400
Ni460      Ni  0.77059323  0.76592646  0.00915053     1.25400
C461        C  0.76423759  0.86236849  0.48318481     0.88100
C462        C  0.70350827  0.68991710  0.01645435     0.88000
C463        C  0.71370967  0.81873682  0.04749912     0.88100
C464        C  0.75398096  0.73345054  0.45193115     0.88200
O465        O  0.25139955  0.29927797  0.04556209    -0.74100
O466        O  0.28278200  0.23860836  0.47278809    -0.74100
O467        O  0.28999078  0.33346824  0.49653015    -0.74200
O468        O  0.24381246  0.20429485  0.02224996    -0.74200
O469        O  0.17539538  0.22318937  0.00434410    -0.74100
O470        O  0.22162009  0.35223630  0.47852119    -0.74100
O471        O  0.21400865  0.25720883  0.45536564    -0.74100
O472        O  0.18269629  0.31810380  0.02810746    -0.74200
Ni473      Ni  0.26942186  0.26811659  0.00986714     1.25400
Ni474      Ni  0.19599785  0.28848727  0.49101942     1.25400
C475        C  0.21260227  0.32096104  0.04823950     0.88100
C476        C  0.25287328  0.23568000  0.45267063     0.88000
C477        C  0.26309010  0.36449225  0.48371963     0.88100
C478        C  0.20235895  0.19204164  0.01698368     0.88200
O479        O  0.71385993  0.29623866  0.20468817    -0.74100
O480        O  0.68257387  0.23538678  0.27745687    -0.74100
O481        O  0.67530290  0.33040772  0.25376201    -0.74200
O482        O  0.72152096  0.20124296  0.22795366    -0.74200
O483        O  0.78989673  0.22011618  0.24593247    -0.74100
O484        O  0.74373957  0.34918210  0.27166227    -0.74100
O485        O  0.75130710  0.25418389  0.29488052    -0.74100
O486        O  0.78263047  0.31483206  0.22210686    -0.74200
Ni487      Ni  0.69587133  0.26502846  0.24038577     1.25400
Ni488      Ni  0.76930889  0.28538794  0.25921476     1.25400
C489        C  0.75273168  0.31774400  0.20197837     0.88100
C490        C  0.71251313  0.23250190  0.29756277     0.88000
C491        C  0.70226912  0.36146898  0.26649734     0.88100
C492        C  0.76297869  0.18901150  0.23323652     0.88200
O493        O  0.21383860  0.25818019  0.29550343    -0.74100
O494        O  0.18254504  0.31903337  0.22273527    -0.74100
O495        O  0.17527567  0.22401191  0.24643068    -0.74200
O496        O  0.22150056  0.35317353  0.27223577    -0.74200
O497        O  0.28987079  0.33428533  0.25425156    -0.74100
O498        O  0.24370898  0.20522594  0.22852731    -0.74100
O499        O  0.25127343  0.30022166  0.20530718    -0.74100
O500        O  0.28260528  0.23957557  0.27808088    -0.74200
Ni501      Ni  0.19584640  0.28939052  0.25980582     1.25400
Ni502      Ni  0.26927961  0.26901712  0.24097250     1.25400
C503        C  0.25271050  0.23667042  0.29821161     0.88100
C504        C  0.21248101  0.32191277  0.20262772     0.88000
C505        C  0.20223922  0.19294591  0.23369409     0.88100
C506        C  0.26295839  0.36539586  0.26694921     0.88200
O507        O  0.75142917  0.25513136  0.45463399    -0.74100
O508        O  0.78280236  0.31580162  0.02740878    -0.74100
O509        O  0.79001161  0.22093748  0.00367022    -0.74200
O510        O  0.74383903  0.35011712  0.47794404    -0.74200
O511        O  0.67541713  0.33123311  0.49584258    -0.74100
O512        O  0.72163639  0.20218531  0.02167396    -0.74100
O513        O  0.71402363  0.29721678  0.04482486    -0.74100
O514        O  0.68272205  0.23631643  0.47208291    -0.74200
Ni515      Ni  0.76944651  0.28629220  0.49032981     1.25400
Ni516      Ni  0.69601775  0.26593554  0.00917110     1.25400
C517        C  0.71263156  0.23345455  0.45195330     0.88100
C518        C  0.75288930  0.31873843  0.04752287     0.88000
C519        C  0.76310599  0.18991984  0.01647918     0.88100
C520        C  0.70238421  0.36237643  0.48320570     0.88200
C521        C  0.63408520  0.48060283  0.76883453     0.80600
N522        N  0.65927455  0.50897514  0.78731253    -0.77700
C523        C  0.69724850  0.48966947  0.79973868     0.83000
N524        N  0.71068644  0.44150444  0.79334454    -0.77700
C525        C  0.68597869  0.41265991  0.77459590     0.83100
N526        N  0.64715974  0.43207472  0.76268153    -0.79400
C527        C  0.63429732  0.48153326  0.98158603     0.80600
N528        N  0.64741465  0.43294885  0.98753112    -0.77700
C529        C  0.68607674  0.41362280  0.97538128     0.83000
N530        N  0.71056782  0.44257236  0.95661072    -0.77700
C531        C  0.69706901  0.49075451  0.95039178     0.83100
N532        N  0.65925826  0.51003477  0.96304297    -0.79400
N533        N  0.72941501  0.52905438  0.87501465    -0.36200
N534        N  0.74412904  0.60794408  0.91834545    -0.56800
N535        N  0.76426760  0.68477374  0.87479947    -0.36200
N536        N  0.74446777  0.60712890  0.83144871    -0.56800
C537        C  0.71032674  0.50723442  0.89849386     0.27300
C538        C  0.71056966  0.50674251  0.85159647     0.27300
C539        C  0.75742954  0.71432165  0.89841049     0.27300
C540        C  0.75743569  0.71395752  0.85105557     0.27300
C541        C  0.74145285  0.56604014  0.93522644     0.36000
C542        C  0.76151828  0.64534226  0.93509863     0.36000
C543        C  0.74183483  0.56505312  0.81467906     0.36000
C544        C  0.76165521  0.64448757  0.81457908     0.36000
C545        C  0.68014233  0.46954534  0.88993413    -0.21500
C546        C  0.68030073  0.46922963  0.86028101    -0.21500
C547        C  0.74767228  0.76358607  0.88956641    -0.21500
C548        C  0.74767764  0.76335971  0.85967592    -0.21500
C549        C  0.75711389  0.57659289  0.96263262    -0.22600
C550        C  0.77027891  0.62645831  0.96258643    -0.22600
C551        C  0.75735310  0.57546721  0.78722425    -0.22600
C552        C  0.77033807  0.62540933  0.78712146    -0.22600
C553        C  0.71947503  0.52053623  0.92738422    -0.17900
C554        C  0.71991976  0.51953881  0.82265435    -0.17900
C555        C  0.76113819  0.69682099  0.82202610    -0.17900
C556        C  0.76111624  0.69758000  0.92751263    -0.17900
H557        H  0.65955467  0.44529474  0.90358466     0.15000
H558        H  0.65985440  0.44469462  0.84670829     0.15000
H559        H  0.74132703  0.79633985  0.90315146     0.15000
H560        H  0.74134530  0.79592378  0.84594272     0.15000
H561        H  0.75789527  0.55129461  0.98090290     0.13300
H562        H  0.78351073  0.64628952  0.98116190     0.13300
H563        H  0.75812059  0.55003739  0.76901413     0.13300
H564        H  0.78337145  0.64517600  0.76846626     0.13300
H565        H  0.75450419  0.55698002  0.87499225     0.26500
H566        H  0.77433666  0.64683576  0.87487622     0.26500
C567        C  0.63473505  0.57040938  0.73135256     0.80600
N568        N  0.65965249  0.54172209  0.71288351    -0.77700
C569        C  0.69770223  0.56070484  0.70038039     0.83000
N570        N  0.71147476  0.60875987  0.70666186    -0.77700
C571        C  0.68701619  0.63787015  0.72536342     0.83100
N572        N  0.64812353  0.61886069  0.73736090    -0.79400
C573        C  0.63468010  0.57133172  0.51908143     0.80600
N574        N  0.64802907  0.61971914  0.51284827    -0.77700
C575        C  0.68707590  0.63882944  0.52460480     0.83000
N576        N  0.71174476  0.60983944  0.54329863    -0.77700
C577        C  0.69802918  0.56180655  0.54977188     0.83100
N578        N  0.65981825  0.54279108  0.53749773    -0.79400
N579        N  0.72989278  0.52229426  0.62503755    -0.36200
N580        N  0.74396106  0.44327796  0.66834439    -0.56800
N581        N  0.76335109  0.36624694  0.62482215    -0.36200
N582        N  0.74441559  0.44411662  0.58148888    -0.56800
C583        C  0.71079960  0.54412836  0.64850319     0.27300
C584        C  0.71109929  0.54463304  0.60161907     0.27300
C585        C  0.75617720  0.33679333  0.64842806     0.27300
C586        C  0.75626369  0.33717395  0.60106767     0.27300
C587        C  0.74174515  0.48523309  0.68520139     0.36000
C588        C  0.76105515  0.40571841  0.68509342     0.36000
C589        C  0.74229790  0.48626268  0.56475580     0.36000
C590        C  0.76137748  0.40661674  0.56463594     0.36000
C591        C  0.68062424  0.58182745  0.63993958    -0.21500
C592        C  0.68081760  0.58215042  0.61028664    -0.21500
C593        C  0.74592194  0.28766461  0.63957201    -0.21500
C594        C  0.74597915  0.28790042  0.60967742    -0.21500
C595        C  0.75743034  0.47457586  0.71258582    -0.22600
C596        C  0.77010432  0.42455664  0.71255878    -0.22600
C597        C  0.75794591  0.47577776  0.53734111    -0.22600
C598        C  0.77044103  0.42567820  0.53721869    -0.22600
C599        C  0.71999269  0.53085573  0.67738105    -0.17900
C600        C  0.72056826  0.53188420  0.57269539    -0.17900
C601        C  0.76025435  0.35428593  0.57204573    -0.17900
C602        C  0.76006257  0.35349041  0.67753007    -0.17900
H603        H  0.66004606  0.60609666  0.65358761     0.15000
H604        H  0.66041411  0.60671245  0.59670212     0.15000
H605        H  0.73923822  0.25498827  0.65315032     0.15000
H606        H  0.73935675  0.25541951  0.59593677     0.15000
H607        H  0.75853949  0.49991127  0.73083068     0.13300
H608        H  0.78319076  0.40463319  0.73114349     0.13300
H609        H  0.75911032  0.50127392  0.51916799     0.13300
H610        H  0.78338625  0.40583219  0.51856432     0.13300
H611        H  0.75499185  0.49436179  0.62502428     0.26500
H612        H  0.77383996  0.40404640  0.62490918     0.26500
C613        C  0.46013437  0.52745591  0.75007876     0.03900
S614        S  0.42745040  0.47512791  0.76431680    -0.10100
C615        C  0.37411601  0.50571788  0.75675264    -0.01300
C616        C  0.37448210  0.55134478  0.74353340    -0.01300
S617        S  0.42839115  0.58048182  0.73573116    -0.10100
C618        C  0.59233338  0.54866988  0.74345830    -0.01300
C619        C  0.59197166  0.50304383  0.75667916    -0.01300
S620        S  0.53806399  0.47390805  0.76449070    -0.10100
C621        C  0.50631627  0.52693463  0.75014827     0.03900
S622        S  0.53899635  0.57926652  0.73591182    -0.10100
C623        C  0.33237119  0.57378990  0.73137675     0.80600
N624        N  0.31929916  0.62231884  0.73753058    -0.77700
C625        C  0.28048314  0.64173881  0.72561522     0.83000
N626        N  0.25577413  0.61289467  0.70686510    -0.77700
C627        C  0.26920903  0.56472664  0.70047055     0.83100
N628        N  0.30718229  0.54542012  0.71289698    -0.79400
C629        C  0.33232089  0.57287004  0.51860493     0.80600
N630        N  0.31920896  0.62146032  0.51267049    -0.77700
C631        C  0.28055675  0.64078974  0.52483099     0.83000
N632        N  0.25607044  0.61183596  0.54360200    -0.77700
C633        C  0.26956726  0.56364976  0.54981361     0.83100
N634        N  0.30736761  0.54436583  0.53715120    -0.79400
N635        N  0.23713923  0.52534340  0.62517604    -0.36200
N636        N  0.22200281  0.44728491  0.66873267    -0.56800
N637        N  0.20224349  0.36964241  0.62536748    -0.36200
N638        N  0.22243946  0.44646444  0.58183649    -0.56800
C639        C  0.25596831  0.54763946  0.64860441     0.27300
C640        C  0.25627816  0.54714057  0.60170684     0.27300
C641        C  0.20905386  0.34046071  0.64911433     0.27300
C642        C  0.20911244  0.34009436  0.60175978     0.27300
C643        C  0.22460439  0.48936422  0.68550195     0.36000
C644        C  0.20477464  0.40993037  0.68558824     0.36000
C645        C  0.22516040  0.48836506  0.56495639     0.36000
C646        C  0.20507067  0.40907119  0.56507135     0.36000
C647        C  0.28628492  0.58511535  0.63993567    -0.21500
C648        C  0.28648525  0.58479542  0.61028233    -0.21500
C649        C  0.21883072  0.29106037  0.64049821    -0.21500
C650        C  0.21886809  0.29083279  0.61060794    -0.21500
C651        C  0.20902098  0.47895897  0.71294335    -0.22600
C652        C  0.19603436  0.42901455  0.71303778    -0.22600
C653        C  0.20954401  0.47781516  0.53753959    -0.22600
C654        C  0.19636273  0.42795616  0.53757749    -0.22600
C655        C  0.24655504  0.53486627  0.67754192    -0.17900
C656        C  0.24714969  0.53385508  0.57281157    -0.17900
C657        C  0.20545674  0.35683382  0.57265632    -0.17900
C658        C  0.20531139  0.35759604  0.67814208    -0.17900
H659        H  0.30673200  0.60963048  0.65351947     0.15000
H660        H  0.30711268  0.60902168  0.59664201     0.15000
H661        H  0.22515364  0.25849734  0.65423369     0.15000
H662        H  0.22523535  0.25808091  0.59702573     0.15000
H663        H  0.20821297  0.50439475  0.73115148     0.13300
H664        H  0.18296405  0.40924958  0.73168387     0.13300
H665        H  0.20881184  0.50310579  0.51926628     0.13300
H666        H  0.18316142  0.40812759  0.51899256     0.13300
H667        H  0.21202198  0.49744763  0.62518480     0.26500
H668        H  0.19216773  0.40757871  0.62528711     0.26500
C669        C  0.33170780  0.48398086  0.76884836     0.80600
N670        N  0.31830890  0.43553904  0.76282668    -0.77700
C671        C  0.27940640  0.41653515  0.77481357     0.83000
N672        N  0.25494518  0.44564270  0.79351588    -0.77700
C673        C  0.26872694  0.49369052  0.79980838     0.83100
N674        N  0.30678977  0.51266486  0.78731814    -0.79400
C675        C  0.33192170  0.48307635  0.98109671     0.80600
N676        N  0.31857444  0.43468663  0.98732705    -0.77700
C677        C  0.27952551  0.41557818  0.97557173     0.83000
N678        N  0.25485229  0.44457081  0.95688304    -0.77700
C679        C  0.26856547  0.49260320  0.95041062     0.83100
N680        N  0.30677920  0.51161941  0.96268284    -0.79400
N681        N  0.23659797  0.53210088  0.87516046    -0.36200
N682        N  0.22215612  0.61029992  0.91871126    -0.56800
N683        N  0.20318755  0.68817825  0.87539115    -0.36200
N684        N  0.22250827  0.61112628  0.83186079    -0.56800
C685        C  0.25541050  0.50975571  0.89856989     0.27300
C686        C  0.25564737  0.51024847  0.85168704     0.27300
C687        C  0.21030240  0.71725007  0.89914240     0.27300
C688        C  0.21033211  0.71762759  0.85178116     0.27300
C689        C  0.22429788  0.56815779  0.93544627     0.36000
C690        C  0.20523333  0.64780601  0.93557589     0.36000
C691        C  0.22470773  0.56917200  0.81500044     0.36000
C692        C  0.20541984  0.64869584  0.81511548     0.36000
C693        C  0.28565318  0.47220920  0.88988945    -0.21500
C694        C  0.28580677  0.47252421  0.86023741    -0.21500
C695        C  0.22057197  0.76652429  0.89052767    -0.21500
C696        C  0.22059295  0.76675879  0.86063266    -0.21500
C697        C  0.20870218  0.57865118  0.96287101    -0.22600
C698        C  0.19621533  0.62875027  0.96300004    -0.22600
C699        C  0.20901983  0.57983940  0.78761833    -0.22600
C700        C  0.19635932  0.62986260  0.78765006    -0.22600
C701        C  0.24600403  0.52252907  0.92749736    -0.17900
C702        C  0.24644305  0.52353428  0.82281326    -0.17900
C703        C  0.20642121  0.70092602  0.82268017    -0.17900
C704        C  0.20635264  0.70013640  0.92816633    -0.17900
H705        H  0.30606271  0.44763734  0.90346459     0.15000
H706        H  0.30635481  0.44823766  0.84658113     0.15000
H707        H  0.22721103  0.79900507  0.90426542     0.15000
H708        H  0.22725950  0.79943570  0.84705145     0.15000
H709        H  0.20756776  0.55316101  0.98104629     0.13300
H710        H  0.18330681  0.64859898  0.98166322     0.13300
H711        H  0.20790082  0.55450626  0.76937124     0.13300
H712        H  0.18327325  0.64979070  0.76906702     0.13300
H713        H  0.21152038  0.56005904  0.87518503     0.26500
H714        H  0.19270184  0.65037639  0.87530879     0.26500
C715        C  0.50639223  0.52694154  0.50030879     0.03900
S716        S  0.53845565  0.47391026  0.98630856    -0.10100
C717        C  0.59216199  0.50368546  0.99386179    -0.01300
C718        C  0.59229795  0.54929791  0.50710094    -0.01300
S719        S  0.53874952  0.57921470  0.51495506    -0.10100
C720        C  0.37444810  0.55071960  0.50631845    -0.01300
C721        C  0.37430711  0.50510813  0.99307766    -0.01300
S722        S  0.42785507  0.47518332  0.98522914    -0.10100
C723        C  0.46021563  0.52746093  0.49986803     0.03900
S724        S  0.42815554  0.58049879  0.51386254    -0.10100
C725        C  0.83237870  0.98059675  0.76880031     0.80600
N726        N  0.81929545  0.93207375  0.76264499    -0.77700
C727        C  0.78048247  0.91266314  0.77456671     0.83000
N728        N  0.75578803  0.94150989  0.79332421    -0.77700
C729        C  0.76923467  0.98967185  0.79971987     0.83100
N730        N  0.80720418  0.00896958  0.78728729    -0.79400
C731        C  0.83232383  0.98151930  0.98160119     0.80600
N732        N  0.81920235  0.93293378  0.98753551    -0.77700
C733        C  0.78055424  0.91361275  0.97536677     0.83000
N734        N  0.75608221  0.94256873  0.95658820    -0.77700
C735        C  0.76958927  0.99074945  0.95037699     0.83100
N736        N  0.80738453  0.01002606  0.96304726    -0.79400
N737        N  0.73717231  0.02906825  0.87501409    -0.36200
N738        N  0.72247959  0.10795053  0.91835599    -0.56800
N739        N  0.70227348  0.18477456  0.87482399    -0.36200
N740        N  0.72204871  0.10713052  0.83145658    -0.56800
C741        C  0.75630398  0.00726260  0.89848370     0.27300
C742        C  0.75599606  0.00676372  0.85158627     0.27300
C743        C  0.70914044  0.21432214  0.89843214     0.27300
C744        C  0.70908225  0.21395582  0.85107702     0.27300
C745        C  0.72520035  0.06604929  0.93523579     0.36000
C746        C  0.70511194  0.14534515  0.93512185     0.36000
C747        C  0.72464835  0.06505088  0.81468711     0.36000
C748        C  0.70481676  0.14448579  0.81460156     0.36000
C749        C  0.78650084  0.96959385  0.88990902    -0.21500
C750        C  0.78630168  0.96927386  0.86025580    -0.21500
C751        C  0.71889221  0.26358362  0.88958398    -0.21500
C752        C  0.71885479  0.26335610  0.85969344    -0.21500
C753        C  0.70958808  0.07660119  0.96265352    -0.22600
C754        C  0.69640666  0.12646098  0.96261603    -0.22600
C755        C  0.70906384  0.07545772  0.78724564    -0.22600
C756        C  0.69607470  0.12540236  0.78715201    -0.22600
C757        C  0.74717982  0.02055232  0.92737887    -0.17900
C758        C  0.74658896  0.01954132  0.82264847    -0.17900
C759        C  0.70534580  0.19681973  0.82204868    -0.17900
C760        C  0.70549013  0.19758212  0.92753606    -0.17900
H761        H  0.80712108  0.94535789  0.90354986     0.11800
H762        H  0.80674234  0.94474922  0.84667269     0.15000
H763        H  0.72525990  0.29633446  0.90316641     0.15000
H764        H  0.72517800  0.29591806  0.84595785     0.15000
H765        H  0.70885808  0.05131147  0.98092725     0.13300
H766        H  0.68320560  0.14628988  0.98120138     0.13300
H767        H  0.70825459  0.05002262  0.76903722     0.13300
H768        H  0.68299951  0.14516743  0.76850651     0.13300
H769        H  0.71206303  0.05697628  0.87500480     0.26500
H770        H  0.69220267  0.14683747  0.87490391     0.26500
C771        C  0.83191985  0.07131513  0.51910954     0.80600
N772        N  0.81858348  0.11971056  0.51287996    -0.77700
C773        C  0.77953221  0.13882866  0.52462858     0.83000
N774        N  0.75484521  0.10983931  0.54331013    -0.77700
C775        C  0.76854773  0.06180132  0.54978238     0.83100
N776        N  0.80676468  0.04277633  0.53751689    -0.79400
C777        C  0.83170967  0.07040590  0.73132853     0.80600
N778        N  0.80677628  0.04172537  0.71286629    -0.77700
C779        C  0.76870845  0.06070829  0.70038370     0.83000
N780        N  0.75493869  0.10876211  0.70667611    -0.77700
C781        C  0.77941637  0.13786685  0.72537039     0.83100
N782        N  0.81832282  0.11885355  0.73734944    -0.79400
N783        N  0.73657323  0.02230966  0.62503106    -0.36200
N784        N  0.72247932  0.94328789  0.66832952    -0.56800
N785        N  0.70316835  0.86623747  0.62479726    -0.36200
N786        N  0.72213051  0.94411564  0.58147855    -0.56800
C787        C  0.75562745  0.04415237  0.64850501     0.27300
C788        C  0.75539092  0.04464697  0.60162224     0.27300
C789        C  0.71031468  0.83679027  0.64840739     0.27300
C790        C  0.71028667  0.83716822  0.60104603     0.27300
C791        C  0.72467291  0.98524280  0.68518939     0.36000
C792        C  0.70538435  0.90572133  0.68507237     0.36000
C793        C  0.72426702  0.98625981  0.56474526     0.36000
C794        C  0.70520512  0.90661286  0.56461387     0.36000
C795        C  0.78579849  0.08186168  0.63995546    -0.21500
C796        C  0.78564501  0.08217792  0.61030359    -0.21500
C797        C  0.72058379  0.78765983  0.63955596    -0.21500
C798        C  0.72056365  0.78789450  0.60966086    -0.21500
C799        C  0.70897328  0.97457997  0.71256888    -0.22600
C800        C  0.69631252  0.92455756  0.71253603    -0.22600
C801        C  0.70866403  0.97577189  0.53732161    -0.22600
C802        C  0.69617977  0.92567289  0.53719117    -0.22600
C803        C  0.74641615  0.03087366  0.67737866    -0.17900
C804        C  0.74597841  0.03188248  0.57269438    -0.17900
C805        C  0.70632966  0.85428190  0.57202229    -0.17900
C806        C  0.70639373  0.85349099  0.67750810    -0.17900
H807        H  0.80635298  0.10613873  0.65361211     0.15000
H808        H  0.80606122  0.10674128  0.59672914     0.15000
H809        H  0.72725268  0.75498240  0.65313704     0.15000
H810        H  0.72720591  0.75541375  0.59592342     0.15000
H811        H  0.70784538  0.99991578  0.73081468     0.13300
H812        H  0.68321950  0.90463184  0.73111745     0.13300
H813        H  0.70752235  0.00126583  0.51914813     0.13300
H814        H  0.68326825  0.90582709  0.51852795     0.13300
H815        H  0.71148637  0.99436281  0.62500559     0.26500
H816        H  0.69267543  0.90403954  0.62487961     0.26500
C817        C  0.00631769  0.02747617  0.75007191     0.03900
S818        S  0.03805644  0.08051785  0.73574553    -0.10100
C819        C  0.09196619  0.05137313  0.74354300    -0.01300
C820        C  0.09233672  0.00574740  0.75676395    -0.01300
S821        S  0.03900388  0.97515942  0.76432575    -0.10100
C822        C  0.87448716  0.00303225  0.75663852    -0.01300
C823        C  0.87411960  0.04865880  0.74341885    -0.01300
S824        S  0.92745157  0.07924953  0.73585950    -0.10100
C825        C  0.96013673  0.02693534  0.75011694     0.03900
S826        S  0.92839709  0.97389580  0.76444618    -0.10100
C827        C  0.13474746  0.98400570  0.76885889     0.80600
N828        N  0.15967484  0.01269169  0.78732195    -0.77700
C829        C  0.19773790  0.99371059  0.79981193     0.83000
N830        N  0.21151257  0.94565757  0.79352429    -0.77700
C831        C  0.18704317  0.91654786  0.77482936     0.83100
N832        N  0.14813839  0.93555626  0.76284420    -0.79400
C833        C  0.13468920  0.98308594  0.98108969     0.80600
N834        N  0.15983612  0.01162620  0.96267974    -0.77700
C835        C  0.19805891  0.99261271  0.95041775     0.83000
N836        N  0.21177631  0.94458112  0.95689560    -0.77700
C837        C  0.18709829  0.91559036  0.97558222     0.83100
N838        N  0.14804079  0.93469942  0.98732774    -0.79400
N839        N  0.22992944  0.03211497  0.87515400    -0.36200
N840        N  0.24397487  0.11113644  0.83184835    -0.56800
N841        N  0.26333228  0.18817785  0.87536987    -0.36200
N842        N  0.24442684  0.11030155  0.91870181    -0.56800
C843        C  0.21084494  0.01027548  0.85168820     0.27300
C844        C  0.21114137  0.00977356  0.89857182     0.27300
C845        C  0.25615342  0.21762760  0.85176335     0.27300
C846        C  0.25624143  0.21724839  0.89912443     0.27300
C847        C  0.24177584  0.06917904  0.81499232     0.36000
C848        C  0.26105930  0.14869977  0.81509969     0.36000
C849        C  0.24232371  0.06815350  0.93543389     0.36000
C850        C  0.26138142  0.14780412  0.93555480     0.36000
C851        C  0.18068132  0.97256754  0.86025106    -0.21500
C852        C  0.18087254  0.97224649  0.88990382    -0.21500
C853        C  0.24588914  0.26675582  0.86061907    -0.21500
C854        C  0.24594745  0.26652091  0.89051413    -0.21500
C855        C  0.25746287  0.07983758  0.78760920    -0.22600
C856        C  0.27011966  0.12986073  0.78763556    -0.22600
C857        C  0.25797464  0.07863886  0.96284753    -0.22600
C858        C  0.27045551  0.12874142  0.96297095    -0.22600
C859        C  0.22003341  0.02355268  0.82281100    -0.17900
C860        C  0.22060255  0.02252914  0.92749528    -0.17900
C861        C  0.26024204  0.20013578  0.92814632    -0.17900
C862        C  0.26004737  0.20092858  0.82266166    -0.17900
H863        H  0.16011142  0.94829159  0.84660284     0.15000
H864        H  0.16047548  0.94767949  0.90348782     0.15000
H865        H  0.23920192  0.29943186  0.84704059     0.15000
H866        H  0.23932251  0.29900240  0.90425436     0.15000
H867        H  0.25858590  0.05449903  0.76936593     0.13300
H868        H  0.28320256  0.14978458  0.76905060     0.13300
H869        H  0.25915209  0.05313977  0.98101898     0.13300
H870        H  0.28339858  0.14858704  0.98162565     0.13300
H871        H  0.25501919  0.06005617  0.87516789     0.26500
H872        H  0.27383043  0.15037957  0.87528310     0.26500
C873        C  0.13406909  0.07381104  0.73137664     0.80600
N874        N  0.15924695  0.04543818  0.71289157    -0.77700
C875        C  0.19720790  0.06474514  0.70045285     0.83000
N876        N  0.21064440  0.11291199  0.70684159    -0.77700
C877        C  0.18594738  0.14175656  0.72559739     0.83100
N878        N  0.14714141  0.12234013  0.73752422    -0.79400
C879        C  0.13428166  0.07288624  0.51858412     0.80600
N880        N  0.15923135  0.04438423  0.53713456    -0.77700
C881        C  0.19703108  0.06366407  0.54979726     0.83000
N882        N  0.21053017  0.11184667  0.54358288    -0.77700
C883        C  0.18604952  0.14079684  0.52480524     0.83100
N884        N  0.14739847  0.12147076  0.51264345    -0.79400
N885        N  0.22936609  0.02535003  0.62517565    -0.36200
N886        N  0.24444429  0.94728385  0.66874299    -0.56800
N887        N  0.26427500  0.86964800  0.62538915    -0.36200
N888        N  0.24410773  0.94647100  0.58184164    -0.56800
C889        C  0.21051516  0.04765796  0.64859390     0.27300
C890        C  0.21027418  0.04716798  0.60169600     0.27300
C891        C  0.25745450  0.84046046  0.64913277     0.27300
C892        C  0.25744770  0.84009720  0.60177797     0.27300
C893        C  0.24179844  0.98935814  0.68551314     0.36000
C894        C  0.26164691  0.90992995  0.68561120     0.36000
C895        C  0.24141814  0.98837435  0.56496089     0.36000
C896        C  0.26150739  0.90907717  0.56508856     0.36000
C897        C  0.18023554  0.08516328  0.63990894    -0.21500
C898        C  0.18007849  0.08484893  0.61025568    -0.21500
C899        C  0.24771600  0.79105470  0.64051209    -0.21500
C900        C  0.24771015  0.79082890  0.61062168    -0.21500
C901        C  0.25732223  0.97894732  0.71296785    -0.22600
C902        C  0.27032590  0.92900915  0.71306905    -0.22600
C903        C  0.25707971  0.97782473  0.53755404    -0.22600
C904        C  0.27026031  0.92796252  0.53760043    -0.22600
C905        C  0.21987290  0.03486854  0.67753657    -0.17900
C906        C  0.21943154  0.03387476  0.57280517    -0.17900
C907        C  0.26112460  0.85683977  0.57267572    -0.17900
C908        C  0.26114812  0.85759707  0.67816261    -0.17900
H909        H  0.15978328  0.10969413  0.65348151     0.15000
H910        H  0.15948593  0.10909678  0.59660489     0.15000
H911        H  0.24139591  0.75848846  0.65424511     0.15000
H912        H  0.24137659  0.75807329  0.59703638     0.15000
H913        H  0.25808046  0.00437553  0.73117897     0.13300
H914        H  0.28336875  0.90924429  0.73172297     0.13300
H915        H  0.25784960  0.00312162  0.51928293     0.13300
H916        H  0.28349702  0.90813313  0.51902529     0.13300
H917        H  0.25446412  0.99743145  0.62519820     0.26500
H918        H  0.27432761  0.90758999  0.62531280     0.26500
C919        C  0.00639041  0.02747191  0.99985730     0.03900
S920        S  0.03875314  0.97521242  0.98519581    -0.10100
C921        C  0.09229891  0.00512277  0.99306065    -0.01300
C922        C  0.09215537  0.05073684  0.50629809    -0.01300
S923        S  0.03844687  0.08051988  0.51383866    -0.10100
C924        C  0.87430656  0.04927310  0.50713413    -0.01300
C925        C  0.87444861  0.00366101  0.99389384    -0.01300
S926        S  0.92815730  0.97388097  0.98634722    -0.10100
C927        C  0.96021488  0.02693256  0.00032293     0.03900
S928        S  0.92785331  0.07919652  0.51498030    -0.10100
O929        O  0.68382273  0.81484222  0.72208865    -0.74100
O930        O  0.71516268  0.75418639  0.79486126    -0.74100
O931        O  0.72272242  0.84918619  0.77164116    -0.74200
O932        O  0.67655460  0.72012665  0.74591795    -0.74200
O933        O  0.74492395  0.70123323  0.72793451    -0.74100
O934        O  0.79115273  0.83040272  0.75373299    -0.74100
O935        O  0.78389256  0.73538446  0.77743193    -0.74100
O936        O  0.75258538  0.79622461  0.70466442    -0.74200
Ni937      Ni  0.69715047  0.78539443  0.75919646     1.25400
Ni938      Ni  0.77058181  0.76501950  0.74036119     1.25400
C939        C  0.71371845  0.81774494  0.70195797     0.88100
C940        C  0.75395969  0.73250457  0.79754118     0.88000
C941        C  0.76419033  0.86146974  0.76647069     0.88100
C942        C  0.70346529  0.68901274  0.73322194     0.88200
O943        O  0.29116864  0.72399903  0.74644833    -0.74100
O944        O  0.24494920  0.85317633  0.77225252    -0.74100
O945        O  0.25261238  0.75818355  0.79552102    -0.74200
O946        O  0.28391071  0.81902338  0.72275306    -0.74200
O947        O  0.21517673  0.80023457  0.70532710    -0.74100
O948        O  0.18384506  0.73958073  0.77810088    -0.74100
O949        O  0.17657573  0.83429594  0.75427280    -0.74100
O950        O  0.22273340  0.70523209  0.72854412    -0.74200
Ni951      Ni  0.27060372  0.78938657  0.75982331     1.25400
Ni952      Ni  0.19716777  0.76902708  0.74099203     1.25400
C953        C  0.26420083  0.69293835  0.73371178     0.88100
C954        C  0.20348989  0.86540411  0.76696793     0.88000
C955        C  0.21374386  0.73667242  0.79823019     0.88100
C956        C  0.25397424  0.82191057  0.70264589     0.88200
O957        O  0.28390629  0.81810651  0.52812978    -0.74100
O958        O  0.25260358  0.75719223  0.95538822    -0.74100
O959        O  0.24499761  0.85223226  0.97853664    -0.74200
O960        O  0.29121619  0.72318527  0.50437564    -0.74200
O961        O  0.22279223  0.70429740  0.52226917    -0.74100
O962        O  0.17662466  0.83348379  0.99654500    -0.74100
O963        O  0.18382229  0.73862137  0.97280498    -0.74100
O964        O  0.21520152  0.79928130  0.54557876    -0.74200
Ni965      Ni  0.27061370  0.78848059  0.99104227     1.25400
Ni966      Ni  0.19718487  0.76812530  0.50988378     1.25400
C967        C  0.25399498  0.82096592  0.54825866     0.88100
C968        C  0.21373228  0.73568149  0.95268948     0.88000
C969        C  0.20352918  0.86450030  0.98373367     0.88100
C970        C  0.26424876  0.69203963  0.51701048     0.88200
O971        O  0.72278102  0.85011982  0.97792143    -0.74100
O972        O  0.67660567  0.72093871  0.50364197    -0.74100
O973        O  0.68380210  0.81580332  0.52738172    -0.74200
O974        O  0.71518677  0.75513812  0.95460974    -0.74200
O975        O  0.78388933  0.73630435  0.97206234    -0.74100
O976        O  0.75257853  0.79721518  0.54480375    -0.74100
O977        O  0.74497644  0.70217771  0.52165302    -0.74100
O978        O  0.79119994  0.83121760  0.99582163    -0.74200
Ni979      Ni  0.69716804  0.78629579  0.99030426     1.25400
Ni980      Ni  0.77059326  0.76592633  0.50915056     1.25400
C981        C  0.76423754  0.86236857  0.98318486     0.88100
C982        C  0.70350817  0.68991718  0.51645434     0.88000
C983        C  0.71370962  0.81873675  0.54749914     0.88100
C984        C  0.75398092  0.73345057  0.95193117     0.88200
O985        O  0.25139944  0.29927788  0.54556212    -0.74100
O986        O  0.28278192  0.23860833  0.97278812    -0.74100
O987        O  0.28999070  0.33346827  0.99653016    -0.74200
O988        O  0.24381250  0.20429481  0.52224992    -0.74200
O989        O  0.17539536  0.22318944  0.50434415    -0.74100
O990        O  0.22162004  0.35223633  0.97852121    -0.74100
O991        O  0.21400867  0.25720896  0.95536562    -0.74100
O992        O  0.18269630  0.31810396  0.52810737    -0.74200
Ni993      Ni  0.26942192  0.26811656  0.50986714     1.25400
Ni994      Ni  0.19599787  0.28848726  0.99101944     1.25400
C995        C  0.21260220  0.32096108  0.54823947     0.88100
C996        C  0.25287325  0.23568001  0.95267064     0.88000
C997        C  0.26309001  0.36449230  0.98371965     0.88100
C998        C  0.20235894  0.19204169  0.51698369     0.88200
O999        O  0.71386007  0.29623862  0.70468818    -0.74100
O1000       O  0.68257389  0.23538696  0.77745689    -0.74100
O1001       O  0.67530301  0.33040784  0.75376201    -0.74200
O1002       O  0.72152104  0.20124314  0.72795359    -0.74200
O1003       O  0.78989680  0.22011626  0.74593243    -0.74100
O1004       O  0.74373968  0.34918217  0.77166226    -0.74100
O1005       O  0.75130721  0.25418379  0.79488046    -0.74100
O1006       O  0.78263063  0.31483206  0.72210681    -0.74200
Ni1007     Ni  0.69587144  0.26502857  0.74038577     1.25400
Ni1008     Ni  0.76930901  0.28538798  0.75921471     1.25400
C1009       C  0.75273177  0.31774402  0.70197837     0.88100
C1010       C  0.71251315  0.23250195  0.79756276     0.88000
C1011       C  0.70226922  0.36146907  0.76649734     0.88100
C1012       C  0.76297875  0.18901161  0.73323650     0.88200
O1013       O  0.21383855  0.25818008  0.79550343    -0.74100
O1014       O  0.18254494  0.31903335  0.72273530    -0.74100
O1015       O  0.17527558  0.22401186  0.74643074    -0.74200
O1016       O  0.22150066  0.35317348  0.77223579    -0.74200
O1017       O  0.28987088  0.33428537  0.75425158    -0.74100
O1018       O  0.24370879  0.20522610  0.72852720    -0.74100
O1019       O  0.25127332  0.30022173  0.70530723    -0.74100
O1020       O  0.28260518  0.23957550  0.77808085    -0.74200
Ni1021     Ni  0.19584641  0.28939045  0.75980584     1.25400
Ni1022     Ni  0.26927951  0.26901718  0.74097249     1.25400
C1023       C  0.25271044  0.23667038  0.79821161     0.88100
C1024       C  0.21248089  0.32191274  0.70262773     0.88000
C1025       C  0.20223909  0.19294596  0.73369405     0.88100
C1026       C  0.26295845  0.36539588  0.76694919     0.88200
O1027       O  0.75142910  0.25513144  0.95463398    -0.74100
O1028       O  0.78280245  0.31580164  0.52740877    -0.74100
O1029       O  0.79001170  0.22093745  0.50367019    -0.74200
O1030       O  0.74383905  0.35011716  0.97794400    -0.74200
O1031       O  0.67541720  0.33123309  0.99584257    -0.74100
O1032       O  0.72163641  0.20218537  0.52167391    -0.74100
O1033       O  0.71402367  0.29721691  0.54482486    -0.74100
O1034       O  0.68272203  0.23631638  0.97208286    -0.74200
Ni1035     Ni  0.76944644  0.28629224  0.99032982     1.25400
Ni1036     Ni  0.69601773  0.26593562  0.50917111     1.25400
C1037       C  0.71263152  0.23345461  0.95195324     0.88100
C1038       C  0.75288939  0.31873850  0.54752286     0.88000
C1039       C  0.76310600  0.18991987  0.51647915     0.88100
C1040       C  0.70238422  0.36237644  0.98320566     0.88200
loop_ 
_geom_bond_atom_site_label_1 
_geom_bond_atom_site_label_2 
_geom_bond_distance 
_geom_bond_site_symmetry_2 
_ccdc_geom_bond_type 
C1            N2   1.355       .  A
C1            N6   1.362       .  A
C1           C99   1.482       .  S
N2            C3   1.354       .  A
C3            N4   1.358       .  A
C3           C34   1.478       .  S
N4            C5   1.362       .  A
C5            N6   1.366       .  A
C5          C491   1.476       .  S
C7            N8   1.362       .  A
C7           N12   1.355       .  A
C7          C197   1.481       .  S
N8            C9   1.365       .  A
C9           N10   1.361       .  A
C9          C520   1.474       .  S
N10          C11   1.358       .  A
C11          N12   1.354       .  A
C11          C33   1.477       .  S
N13          C18   1.351       .  A
N13          C17   1.351       .  A
N13          H45   1.040       .  S
N14          C21   1.353       .  A
N14          C22   1.352       .  A
N15          C20   1.355       .  A
N15          C19   1.356       .  A
N15          H46   1.040       .  S
N16          C23   1.353       .  A
N16          C24   1.352       .  A
C17          C25   1.387       .  A
C17          C33   1.409       .  A
C18          C34   1.409       .  A
C18          C26   1.387       .  A
C19          C27   1.388       .  A
C19          C36   1.422       .  A
C20          C35   1.422       .  A
C20          C28   1.388       .  A
C21          C33   1.407       .  A
C21          C29   1.378       .  A
C22          C36   1.417       .  A
C22          C30   1.390       .  A
C23          C31   1.378       .  A
C23          C34   1.408       .  A
C24          C32   1.390       .  A
C24          C35   1.418       .  A
C25          C26   1.373       .  A
C25          H37   1.082       .  S
C26          H38   1.082       .  S
C27          C28   1.384       .  A
C27          H39   1.082       .  S
C28          H40   1.082       .  S
C29          C30   1.366       .  A
C29          H41   1.076       .  S
C30          H42   1.078       .  S
C31          C32   1.367       .  A
C31          H43   1.076       .  S
C32          H44   1.078       .  S
C35         C420   1.486       .  S
C36         C464   1.487       .  S
C47          N48   1.355       .  A
C47          N52   1.361       .  A
C47          C98   1.481       .  S
N48          C49   1.354       .  A
C49          N50   1.357       .  A
C49          C79   1.476       .  S
N50          C51   1.361       .  A
C51          N52   1.365       .  A
C51         C422   1.474       .  S
C53          N54   1.361       .  A
C53          N58   1.355       .  A
C53         C198   1.481       .  S
N54          C55   1.365       .  A
C55          N56   1.362       .  A
C55         C462   1.476       .  S
N56          C57   1.358       .  A
C57          N58   1.354       .  A
C57          C80   1.478       .  S
N59          C64   1.351       .  A
N59          C63   1.351       .  A
N59          H91   1.040       .  S
N60          C67   1.352       .  A
N60          C68   1.352       .  A
N61          C66   1.355       .  A
N61          C65   1.356       .  A
N61          H92   1.040       .  S
N62          C69   1.353       .  A
N62          C70   1.352       .  A
C63          C71   1.387       .  A
C63          C79   1.408       .  A
C64          C80   1.408       .  A
C64          C72   1.387       .  A
C65          C73   1.388       .  A
C65          C82   1.422       .  A
C66          C81   1.422       .  A
C66          C74   1.388       .  A
C67          C79   1.406       .  A
C67          C75   1.378       .  A
C68          C82   1.417       .  A
C68          C76   1.390       .  A
C69          C77   1.378       .  A
C69          C80   1.407       .  A
C70          C78   1.391       .  A
C70          C81   1.418       .  A
C71          C72   1.373       .  A
C71          H83   1.082       .  S
C72          H84   1.082       .  S
C73          C74   1.384       .  A
C73          H85   1.082       .  S
C74          H86   1.082       .  S
C75          C76   1.366       .  A
C75          H87   1.076       .  S
C76          H88   1.078       .  S
C77          C78   1.367       .  A
C77          H89   1.076       .  S
C78          H90   1.078       .  S
C81         C518   1.486       .  S
C82         C489   1.487       .  S
C93          S94   1.802       .  S
C93          S97   1.803       .  S
C93         C101   1.357       .  D
S94          C95   1.795       .  S
C95         C149   1.481       .  S
C95          C96   1.346       .  D
C96         C103   1.482       .  S
C96          S97   1.796       .  S
C98         S102   1.795       .  S
C98          C99   1.346       .  D
C99         S100   1.796       .  S
S100        C101   1.803       .  S
C101        S102   1.802       .  S
C103        N104   1.362       .  A
C103        N108   1.355       .  A
N104        C105   1.366       .  A
C105        N106   1.362       .  A
C105        C433   1.476       .  S
N106        C107   1.358       .  A
C107        N108   1.354       .  A
C107        C135   1.478       .  S
C109        N110   1.362       .  A
C109        N114   1.355       .  A
C109        C200   1.481       .  S
N110        C111   1.365       .  A
C111        N112   1.361       .  A
C111        C450   1.474       .  S
N112        C113   1.358       .  A
C113        N114   1.354       .  A
C113        C136   1.477       .  S
N115        C120   1.351       .  A
N115        C119   1.351       .  A
N115        H147   1.040       .  S
N116        C123   1.353       .  A
N116        C124   1.352       .  A
N117        C122   1.356       .  A
N117        C121   1.355       .  A
N117        H148   1.040       .  S
N118        C125   1.353       .  A
N118        C126   1.352       .  A
C119        C127   1.387       .  A
C119        C135   1.409       .  A
C120        C136   1.409       .  A
C120        C128   1.387       .  A
C121        C129   1.388       .  A
C121        C138   1.422       .  A
C122        C137   1.422       .  A
C122        C130   1.388       .  A
C123        C135   1.408       .  A
C123        C131   1.378       .  A
C124        C138   1.418       .  A
C124        C132   1.390       .  A
C125        C133   1.378       .  A
C125        C136   1.407       .  A
C126        C134   1.390       .  A
C126        C137   1.417       .  A
C127        C128   1.373       .  A
C127        H139   1.082       .  S
C128        H140   1.082       .  S
C129        C130   1.384       .  A
C129        H141   1.082       .  S
C130        H142   1.082       .  S
C131        C132   1.367       .  A
C131        H143   1.076       .  S
C132        H144   1.078       .  S
C133        C134   1.366       .  A
C133        H145   1.076       .  S
C134        H146   1.078       .  S
C137        C475   1.487       .  S
C138        C504   1.486       .  S
C149        N150   1.361       .  A
C149        N154   1.355       .  A
N150        C151   1.365       .  A
C151        N152   1.361       .  A
C151        C506   1.474       .  S
N152        C153   1.357       .  A
C153        N154   1.354       .  A
C153        C182   1.476       .  S
C155        N156   1.361       .  A
C155        N160   1.355       .  A
C155        C201   1.481       .  S
N156        C157   1.365       .  A
C157        N158   1.362       .  A
C157        C477   1.476       .  S
N158        C159   1.358       .  A
C159        N160   1.354       .  A
C159        C181   1.478       .  S
N161        C166   1.351       .  A
N161        C165   1.351       .  A
N161        H193   1.040       .  S
N162        C169   1.353       .  A
N162        C170   1.352       .  A
N163        C168   1.356       .  A
N163        C167   1.355       .  A
N163        H194   1.040       .  S
N164        C171   1.352       .  A
N164        C172   1.352       .  A
C165        C173   1.387       .  A
C165        C181   1.408       .  A
C166        C182   1.408       .  A
C166        C174   1.387       .  A
C167        C175   1.388       .  A
C167        C184   1.422       .  A
C168        C183   1.422       .  A
C168        C176   1.388       .  A
C169        C181   1.407       .  A
C169        C177   1.378       .  A
C170        C184   1.418       .  A
C170        C178   1.391       .  A
C171        C179   1.378       .  A
C171        C182   1.406       .  A
C172        C180   1.390       .  A
C172        C183   1.417       .  A
C173        C174   1.373       .  A
C173        H185   1.082       .  S
C174        H186   1.082       .  S
C175        C176   1.384       .  A
C175        H187   1.082       .  S
C176        H188   1.082       .  S
C177        C178   1.367       .  A
C177        H189   1.076       .  S
C178        H190   1.078       .  S
C179        C180   1.366       .  A
C179        H191   1.076       .  S
C180        H192   1.078       .  S
C183        C435   1.487       .  S
C184        C448   1.486       .  S
C195        S199   1.803       .  S
C195        S716   1.803   1_554  S
C195        C203   1.357   1_554  D
S196        C197   1.796       .  S
S196        C715   1.803       .  S
C197        C718   1.346       .  D
C198        S199   1.796       .  S
C198        C717   1.346   1_554  D
C200        S204   1.796       .  S
C200        C721   1.346   1_554  D
C201        S202   1.796       .  S
C201        C720   1.346       .  D
S202        C723   1.803       .  S
C203        S204   1.803   1_556  S
C203        S722   1.803       .  S
C205        N206   1.362       .  A
C205        N210   1.355   1_565  A
C205        C302   1.482   1_565  S
N206        C207   1.366       .  A
C207        N208   1.362       .  A
C207        C421   1.476       .  S
N208        C209   1.358       .  A
C209        N210   1.354   1_565  A
C209        C238   1.478   1_565  S
C211        N212   1.362       .  A
C211        N216   1.355   1_565  A
C211        C405   1.481   1_565  S
N212        C213   1.365       .  A
C213        N214   1.361       .  A
C213        C461   1.474       .  S
N214        C215   1.358       .  A
C215        N216   1.354   1_565  A
C215        C237   1.477   1_565  S
N217        C222   1.351       .  A
N217        C221   1.351       .  A
N217        H249   1.040       .  S
N218        C225   1.353       .  A
N218        C226   1.352       .  A
N219        C224   1.355       .  A
N219        C223   1.356       .  A
N219        H250   1.040       .  S
N220        C227   1.353       .  A
N220        C228   1.352       .  A
C221        C229   1.387   1_545  A
C221        C237   1.409       .  A
C222        C238   1.409       .  A
C222        C230   1.387   1_545  A
C223        C231   1.388       .  A
C223        C240   1.422       .  A
C224        C239   1.422       .  A
C224        C232   1.388       .  A
C225        C237   1.407       .  A
C225        C233   1.378       .  A
C226        C240   1.417       .  A
C226        C234   1.390       .  A
C227        C235   1.378       .  A
C227        C238   1.408       .  A
C228        C236   1.390       .  A
C228        C239   1.418       .  A
C229        C230   1.373       .  A
C229        H241   1.082       .  S
C230        H242   1.082       .  S
C231        C232   1.384       .  A
C231        H243   1.082       .  S
C232        H244   1.082       .  S
C233        C234   1.366       .  A
C233        H245   1.076       .  S
C234        H246   1.078       .  S
C235        C236   1.367       .  A
C235        H247   1.076       .  S
C236        H248   1.078       .  S
C239        C490   1.486       .  S
C240        C517   1.487       .  S
C251        N252   1.362       .  A
C251        N256   1.355       .  A
C251        C404   1.481       .  S
N252        C253   1.365       .  A
C253        N254   1.362       .  A
C253        C519   1.476       .  S
N254        C255   1.358       .  A
C255        N256   1.354       .  A
C255        C284   1.478       .  S
C257        N258   1.355       .  A
C257        N262   1.361       .  A
C257        C303   1.481       .  S
N258        C259   1.354       .  A
C259        N260   1.357       .  A
C259        C283   1.476       .  S
N260        C261   1.361       .  A
C261        N262   1.365       .  A
C261        C492   1.474       .  S
N263        C268   1.351       .  A
N263        C267   1.351       .  A
N263        H295   1.040   1_545  S
N264        C271   1.352       .  A
N264        C272   1.352       .  A
N265        C270   1.355       .  A
N265        C269   1.356       .  A
N265        H296   1.040       .  S
N266        C273   1.353       .  A
N266        C274   1.352       .  A
C267        C275   1.387       .  A
C267        C283   1.408       .  A
C268        C284   1.408       .  A
C268        C276   1.387       .  A
C269        C277   1.388       .  A
C269        C286   1.422       .  A
C270        C285   1.422       .  A
C270        C278   1.388       .  A
C271        C283   1.406   1_565  A
C271        C279   1.378       .  A
C272        C286   1.417       .  A
C272        C280   1.390       .  A
C273        C281   1.378       .  A
C273        C284   1.407   1_565  A
C274        C282   1.391       .  A
C274        C285   1.418       .  A
C275        C276   1.373       .  A
C275        H287   1.082       .  S
C276        H288   1.082       .  S
C277        C278   1.384       .  A
C277        H289   1.082       .  S
C278        H290   1.082       .  S
C279        C280   1.366       .  A
C279        H291   1.076       .  S
C280        H292   1.078       .  S
C281        C282   1.367       .  A
C281        H293   1.076   1_565  S
C282        H294   1.078       .  S
C285        C463   1.486       .  S
C286        C419   1.487       .  S
C297        S298   1.803       .  S
C297        S301   1.802   1_545  S
C297        C305   1.357   1_455  D
S298        C299   1.796       .  S
C299        C353   1.482       .  S
C299        C300   1.346       .  D
C300        C307   1.481   1_545  S
C300        S301   1.795   1_545  S
C302        S306   1.796   1_545  S
C302        C303   1.346       .  D
C303        S304   1.795       .  S
S304        C305   1.802       .  S
C305        S306   1.803   1_545  S
C307        N308   1.355   1_565  A
C307        N312   1.361       .  A
N308        C309   1.354   1_545  A
C309        N310   1.357       .  A
C309        C339   1.476   1_565  S
N310        C311   1.361       .  A
C311        N312   1.365       .  A
C311        C434   1.474       .  S
C313        N314   1.355   1_565  A
C313        N318   1.361       .  A
C313        C401   1.481   1_565  S
N314        C315   1.354   1_545  A
C315        N316   1.358       .  A
C315        C340   1.478   1_565  S
N316        C317   1.362       .  A
C317        N318   1.365       .  A
C317        C449   1.476       .  S
N319        C324   1.351       .  A
N319        C323   1.351       .  A
N319        H351   1.040       .  S
N320        C327   1.352       .  A
N320        C328   1.352       .  A
N321        C326   1.355       .  A
N321        C325   1.356       .  A
N321        H352   1.040       .  S
N322        C329   1.353       .  A
N322        C330   1.352       .  A
C323        C331   1.387   1_545  A
C323        C339   1.408       .  A
C324        C340   1.408       .  A
C324        C332   1.387   1_545  A
C325        C333   1.388       .  A
C325        C342   1.422       .  A
C326        C341   1.422       .  A
C326        C334   1.388       .  A
C327        C339   1.406       .  A
C327        C335   1.378       .  A
C328        C342   1.417       .  A
C328        C336   1.390       .  A
C329        C337   1.378       .  A
C329        C340   1.407       .  A
C330        C338   1.391       .  A
C330        C341   1.418       .  A
C331        C332   1.373       .  A
C331        H343   1.082       .  S
C332        H344   1.082       .  S
C333        C334   1.384       .  A
C333        H345   1.082       .  S
C334        H346   1.082       .  S
C335        C336   1.366       .  A
C335        H347   1.076       .  S
C336        H348   1.078       .  S
C337        C338   1.367       .  A
C337        H349   1.076       .  S
C338        H350   1.078       .  S
C341        C476   1.486       .  S
C342        C503   1.487       .  S
C353        N354   1.355       .  A
C353        N358   1.362       .  A
N354        C355   1.354       .  A
C355        N356   1.358       .  A
C355        C385   1.478       .  S
N356        C357   1.362       .  A
C357        N358   1.366       .  A
C357        C505   1.476       .  S
C359        N360   1.355       .  A
C359        N364   1.362       .  A
C359        C402   1.481       .  S
N360        C361   1.354       .  A
C361        N362   1.358       .  A
C361        C386   1.477       .  S
N362        C363   1.361       .  A
C363        N364   1.365       .  A
C363        C478   1.474       .  S
N365        C370   1.351       .  A
N365        C369   1.351       .  A
N365        H397   1.040   1_545  S
N366        C373   1.353       .  A
N366        C374   1.352       .  A
N367        C372   1.356       .  A
N367        C371   1.355       .  A
N367        H398   1.040       .  S
N368        C375   1.353       .  A
N368        C376   1.352       .  A
C369        C377   1.387       .  A
C369        C385   1.409       .  A
C370        C386   1.409       .  A
C370        C378   1.387       .  A
C371        C379   1.388       .  A
C371        C388   1.422       .  A
C372        C387   1.422       .  A
C372        C380   1.388       .  A
C373        C385   1.408   1_565  A
C373        C381   1.378       .  A
C374        C388   1.418       .  A
C374        C382   1.390       .  A
C375        C383   1.378       .  A
C375        C386   1.407   1_565  A
C376        C384   1.390       .  A
C376        C387   1.417       .  A
C377        C378   1.373       .  A
C377        H389   1.082       .  S
C378        H390   1.082       .  S
C379        C380   1.384       .  A
C379        H391   1.082       .  S
C380        H392   1.082       .  S
C381        C382   1.367       .  A
C381        H393   1.076   1_565  S
C382        H394   1.078       .  S
C383        C384   1.366       .  A
C383        H395   1.076   1_565  S
C384        H396   1.078       .  S
C387        C447   1.487       .  S
C388        C436   1.486       .  S
C399        S400   1.803   1_545  S
C399        S923   1.803       .  S
C399        C407   1.357   1_455  D
S400        C401   1.796   1_565  S
C401        C922   1.346       .  D
C402        S403   1.795       .  S
C402        C921   1.346   1_554  D
S403        C919   1.803   1_554  S
C404        S408   1.796       .  S
C404        C925   1.346   1_554  D
C405        S406   1.796   1_545  S
C405        C924   1.346       .  D
S406        C407   1.803   1_565  S
C407        S928   1.803       .  S
S408        C927   1.803       .  S
O409       Ni417   1.925       .  S
O409        C419   1.283       .  A
O410       Ni417   1.918       .  S
O410        C420   1.280       .  A
O411       Ni417   1.925       .  S
O411        C421   1.283       .  A
O412       Ni417   1.920       .  S
O412        C422   1.280       .  A
O413       Ni418   1.926       .  S
O413        C422   1.283       .  A
O414       Ni418   1.924       .  S
O414        C421   1.281       .  A
O415       Ni418   1.925       .  S
O415        C420   1.283       .  A
O416       Ni418   1.919       .  S
O416        C419   1.280       .  A
Ni417      Ni418   2.388       .  S
O423       Ni431   1.924       .  S
O423        C433   1.281       .  A
O424       Ni431   1.926       .  S
O424        C434   1.283       .  A
O425       Ni431   1.919       .  S
O425        C435   1.280       .  A
O426       Ni431   1.925       .  S
O426        C436   1.283       .  A
O427       Ni432   1.918       .  S
O427        C436   1.280       .  A
O428       Ni432   1.925       .  S
O428        C435   1.283       .  A
O429       Ni432   1.920       .  S
O429        C434   1.280       .  A
O430       Ni432   1.925       .  S
O430        C433   1.283       .  A
Ni431      Ni432   2.388       .  S
O437       Ni965   1.926   1_554  S
O437        C447   1.283       .  A
O438       Ni445   1.919       .  S
O438        C448   1.280       .  A
O439       Ni445   1.926       .  S
O439        C449   1.283       .  A
O440       Ni965   1.921   1_554  S
O440        C450   1.281       .  A
O441       Ni446   1.925       .  S
O441        C450   1.283       .  A
O442       Ni966   1.922       .  S
O442        C449   1.281       .  A
O443       Ni966   1.924       .  S
O443        C448   1.283       .  A
O444       Ni446   1.919       .  S
O444        C447   1.280       .  A
Ni445       O957   1.926       .  S
Ni445       O960   1.921       .  S
Ni445      Ni966   2.388       .  S
Ni446       O962   1.922   1_554  S
Ni446       O963   1.924   1_554  S
Ni446      Ni965   2.388   1_554  S
O451       Ni459   1.925       .  S
O451        C461   1.283       .  A
O452       Ni979   1.922   1_554  S
O452        C462   1.281       .  A
O453       Ni979   1.924   1_554  S
O453        C463   1.283       .  A
O454       Ni459   1.919       .  S
O454        C464   1.280       .  A
O455       Ni980   1.926       .  S
O455        C464   1.283       .  A
O456       Ni460   1.919       .  S
O456        C463   1.280       .  A
O457       Ni460   1.925       .  S
O457        C462   1.283       .  A
O458       Ni980   1.921       .  S
O458        C461   1.281       .  A
Ni459       O972   1.922       .  S
Ni459       O973   1.924       .  S
Ni459      Ni980   2.388       .  S
Ni460       O975   1.926   1_554  S
Ni460       O978   1.921   1_554  S
Ni460      Ni979   2.388   1_554  S
O465       Ni473   1.919       .  S
O465        C475   1.280       .  A
O466       Ni993   1.924       .  S
O466        C476   1.283       .  A
O467       Ni993   1.922       .  S
O467        C477   1.281       .  A
O468       Ni473   1.925       .  S
O468        C478   1.283       .  A
O469       Ni994   1.921   1_554  S
O469        C478   1.281       .  A
O470       Ni474   1.925       .  S
O470        C477   1.283       .  A
O471       Ni474   1.919       .  S
O471        C476   1.280       .  A
O472       Ni994   1.926   1_554  S
O472        C475   1.283       .  A
Ni473       O986   1.924   1_554  S
Ni473       O987   1.922   1_554  S
Ni473      Ni994   2.388   1_554  S
Ni474       O989   1.921       .  S
Ni474       O992   1.926       .  S
Ni474      Ni993   2.388       .  S
O479       Ni487   1.919       .  S
O479        C489   1.280       .  A
O480       Ni487   1.925       .  S
O480        C490   1.283       .  A
O481       Ni487   1.923       .  S
O481        C491   1.281       .  A
O482       Ni487   1.926       .  S
O482        C492   1.283       .  A
O483       Ni488   1.920       .  S
O483        C492   1.280       .  A
O484       Ni488   1.925       .  S
O484        C491   1.283       .  A
O485       Ni488   1.918       .  S
O485        C490   1.280       .  A
O486       Ni488   1.925       .  S
O486        C489   1.283       .  A
Ni487      Ni488   2.388       .  S
O493       Ni501   1.919       .  S
O493        C503   1.280       .  A
O494       Ni501   1.925       .  S
O494        C504   1.283       .  A
O495       Ni501   1.924       .  S
O495        C505   1.281       .  A
O496       Ni501   1.926       .  S
O496        C506   1.283       .  A
O497       Ni502   1.920       .  S
O497        C506   1.280       .  A
O498       Ni502   1.925       .  S
O498        C505   1.283       .  A
O499       Ni502   1.918       .  S
O499        C504   1.280       .  A
O500       Ni502   1.925       .  S
O500        C503   1.283       .  A
Ni501      Ni502   2.388       .  S
O507       Ni515   1.919       .  S
O507        C517   1.280       .  A
O508      Ni1035   1.924   1_554  S
O508        C518   1.283       .  A
O509      Ni1035   1.922   1_554  S
O509        C519   1.281       .  A
O510       Ni515   1.925       .  S
O510        C520   1.283       .  A
O511      Ni1036   1.921       .  S
O511        C520   1.281       .  A
O512       Ni516   1.925       .  S
O512        C519   1.283       .  A
O513       Ni516   1.919       .  S
O513        C518   1.280       .  A
O514      Ni1036   1.926       .  S
O514        C517   1.283       .  A
Ni515      O1028   1.924       .  S
Ni515      O1029   1.922       .  S
Ni515     Ni1036   2.388       .  S
Ni516      O1031   1.921   1_554  S
Ni516      O1034   1.926   1_554  S
Ni516     Ni1035   2.388   1_554  S
C521        N522   1.355       .  A
C521        N526   1.362       .  A
C521        C619   1.482       .  S
N522        C523   1.354       .  A
C523        N524   1.358       .  A
C523        C554   1.478       .  S
N524        C525   1.362       .  A
C525        N526   1.366       .  A
C525       C1011   1.476       .  S
C527        N528   1.362       .  A
C527        N532   1.355       .  A
C527        C717   1.481       .  S
N528        C529   1.365       .  A
C529        N530   1.361       .  A
C529       C1040   1.474       .  S
N530        C531   1.358       .  A
C531        N532   1.354       .  A
C531        C553   1.477       .  S
N533        C538   1.351       .  A
N533        C537   1.351       .  A
N533        H565   1.040       .  S
N534        C541   1.353       .  A
N534        C542   1.352       .  A
N535        C540   1.355       .  A
N535        C539   1.356       .  A
N535        H566   1.040       .  S
N536        C543   1.353       .  A
N536        C544   1.352       .  A
C537        C545   1.387       .  A
C537        C553   1.409       .  A
C538        C554   1.409       .  A
C538        C546   1.387       .  A
C539        C547   1.388       .  A
C539        C556   1.422       .  A
C540        C555   1.422       .  A
C540        C548   1.388       .  A
C541        C553   1.407       .  A
C541        C549   1.378       .  A
C542        C556   1.417       .  A
C542        C550   1.390       .  A
C543        C551   1.378       .  A
C543        C554   1.408       .  A
C544        C552   1.390       .  A
C544        C555   1.418       .  A
C545        C546   1.373       .  A
C545        H557   1.082       .  S
C546        H558   1.082       .  S
C547        C548   1.384       .  A
C547        H559   1.082       .  S
C548        H560   1.082       .  S
C549        C550   1.366       .  A
C549        H561   1.076       .  S
C550        H562   1.078       .  S
C551        C552   1.367       .  A
C551        H563   1.076       .  S
C552        H564   1.078       .  S
C555        C940   1.486       .  S
C556        C984   1.487       .  S
C567        N568   1.355       .  A
C567        N572   1.361       .  A
C567        C618   1.481       .  S
N568        C569   1.354       .  A
C569        N570   1.357       .  A
C569        C599   1.476       .  S
N570        C571   1.361       .  A
C571        N572   1.365       .  A
C571        C942   1.474       .  S
C573        N574   1.361       .  A
C573        N578   1.355       .  A
C573        C718   1.481       .  S
N574        C575   1.365       .  A
C575        N576   1.362       .  A
C575        C982   1.476       .  S
N576        C577   1.358       .  A
C577        N578   1.354       .  A
C577        C600   1.478       .  S
N579        C584   1.351       .  A
N579        C583   1.351       .  A
N579        H611   1.040       .  S
N580        C587   1.352       .  A
N580        C588   1.352       .  A
N581        C586   1.355       .  A
N581        C585   1.356       .  A
N581        H612   1.040       .  S
N582        C589   1.353       .  A
N582        C590   1.352       .  A
C583        C591   1.387       .  A
C583        C599   1.408       .  A
C584        C600   1.408       .  A
C584        C592   1.387       .  A
C585        C593   1.388       .  A
C585        C602   1.422       .  A
C586        C601   1.422       .  A
C586        C594   1.388       .  A
C587        C599   1.406       .  A
C587        C595   1.378       .  A
C588        C602   1.417       .  A
C588        C596   1.390       .  A
C589        C597   1.378       .  A
C589        C600   1.407       .  A
C590        C598   1.391       .  A
C590        C601   1.418       .  A
C591        C592   1.373       .  A
C591        H603   1.082       .  S
C592        H604   1.082       .  S
C593        C594   1.384       .  A
C593        H605   1.082       .  S
C594        H606   1.082       .  S
C595        C596   1.366       .  A
C595        H607   1.076       .  S
C596        H608   1.078       .  S
C597        C598   1.367       .  A
C597        H609   1.076       .  S
C598        H610   1.078       .  S
C601       C1038   1.486       .  S
C602       C1009   1.487       .  S
C613        S614   1.802       .  S
C613        S617   1.803       .  S
C613        C621   1.357       .  D
S614        C615   1.795       .  S
C615        C669   1.481       .  S
C615        C616   1.346       .  D
C616        C623   1.482       .  S
C616        S617   1.796       .  S
C618        S622   1.795       .  S
C618        C619   1.346       .  D
C619        S620   1.796       .  S
S620        C621   1.803       .  S
C621        S622   1.802       .  S
C623        N624   1.362       .  A
C623        N628   1.355       .  A
N624        C625   1.366       .  A
C625        N626   1.362       .  A
C625        C953   1.476       .  S
N626        C627   1.358       .  A
C627        N628   1.354       .  A
C627        C655   1.478       .  S
C629        N630   1.362       .  A
C629        N634   1.355       .  A
C629        C720   1.481       .  S
N630        C631   1.365       .  A
C631        N632   1.361       .  A
C631        C970   1.474       .  S
N632        C633   1.358       .  A
C633        N634   1.354       .  A
C633        C656   1.477       .  S
N635        C640   1.351       .  A
N635        C639   1.351       .  A
N635        H667   1.040       .  S
N636        C643   1.353       .  A
N636        C644   1.352       .  A
N637        C642   1.356       .  A
N637        C641   1.355       .  A
N637        H668   1.040       .  S
N638        C645   1.353       .  A
N638        C646   1.352       .  A
C639        C647   1.387       .  A
C639        C655   1.409       .  A
C640        C656   1.409       .  A
C640        C648   1.387       .  A
C641        C649   1.388       .  A
C641        C658   1.422       .  A
C642        C657   1.422       .  A
C642        C650   1.388       .  A
C643        C655   1.408       .  A
C643        C651   1.378       .  A
C644        C658   1.418       .  A
C644        C652   1.390       .  A
C645        C653   1.378       .  A
C645        C656   1.407       .  A
C646        C654   1.390       .  A
C646        C657   1.417       .  A
C647        C648   1.373       .  A
C647        H659   1.082       .  S
C648        H660   1.082       .  S
C649        C650   1.384       .  A
C649        H661   1.082       .  S
C650        H662   1.082       .  S
C651        C652   1.367       .  A
C651        H663   1.076       .  S
C652        H664   1.078       .  S
C653        C654   1.366       .  A
C653        H665   1.076       .  S
C654        H666   1.078       .  S
C657        C995   1.487       .  S
C658       C1024   1.486       .  S
C669        N670   1.361       .  A
C669        N674   1.355       .  A
N670        C671   1.365       .  A
C671        N672   1.361       .  A
C671       C1026   1.474       .  S
N672        C673   1.357       .  A
C673        N674   1.354       .  A
C673        C702   1.476       .  S
C675        N676   1.361       .  A
C675        N680   1.355       .  A
C675        C721   1.481       .  S
N676        C677   1.365       .  A
C677        N678   1.362       .  A
C677        C997   1.476       .  S
N678        C679   1.358       .  A
C679        N680   1.354       .  A
C679        C701   1.478       .  S
N681        C686   1.351       .  A
N681        C685   1.351       .  A
N681        H713   1.040       .  S
N682        C689   1.353       .  A
N682        C690   1.352       .  A
N683        C688   1.356       .  A
N683        C687   1.355       .  A
N683        H714   1.040       .  S
N684        C691   1.352       .  A
N684        C692   1.352       .  A
C685        C693   1.387       .  A
C685        C701   1.408       .  A
C686        C702   1.408       .  A
C686        C694   1.387       .  A
C687        C695   1.388       .  A
C687        C704   1.422       .  A
C688        C703   1.422       .  A
C688        C696   1.388       .  A
C689        C701   1.407       .  A
C689        C697   1.378       .  A
C690        C704   1.418       .  A
C690        C698   1.391       .  A
C691        C699   1.378       .  A
C691        C702   1.406       .  A
C692        C700   1.390       .  A
C692        C703   1.417       .  A
C693        C694   1.373       .  A
C693        H705   1.082       .  S
C694        H706   1.082       .  S
C695        C696   1.384       .  A
C695        H707   1.082       .  S
C696        H708   1.082       .  S
C697        C698   1.367       .  A
C697        H709   1.076       .  S
C698        H710   1.078       .  S
C699        C700   1.366       .  A
C699        H711   1.076       .  S
C700        H712   1.078       .  S
C703        C955   1.487       .  S
C704        C968   1.486       .  S
C715        S719   1.803       .  S
C715        C723   1.357       .  D
S716        C717   1.796       .  S
C718        S719   1.796       .  S
C720        S724   1.796       .  S
C721        S722   1.796       .  S
C723        S724   1.803       .  S
C725        N726   1.362       .  A
C725        N730   1.355   1_565  A
C725        C822   1.482   1_565  S
N726        C727   1.366       .  A
C727        N728   1.362       .  A
C727        C941   1.476       .  S
N728        C729   1.358       .  A
C729        N730   1.354   1_565  A
C729        C758   1.478   1_565  S
C731        N732   1.362       .  A
C731        N736   1.355   1_565  A
C731        C925   1.481   1_565  S
N732        C733   1.365       .  A
C733        N734   1.361       .  A
C733        C981   1.474       .  S
N734        C735   1.358       .  A
C735        N736   1.354   1_565  A
C735        C757   1.477   1_565  S
N737        C742   1.351       .  A
N737        C741   1.351       .  A
N737        H769   1.040       .  S
N738        C745   1.353       .  A
N738        C746   1.352       .  A
N739        C744   1.355       .  A
N739        C743   1.356       .  A
N739        H770   1.040       .  S
N740        C747   1.353       .  A
N740        C748   1.352       .  A
C741        C749   1.387   1_545  A
C741        C757   1.409       .  A
C742        C758   1.409       .  A
C742        C750   1.387   1_545  A
C743        C751   1.388       .  A
C743        C760   1.422       .  A
C744        C759   1.422       .  A
C744        C752   1.388       .  A
C745        C757   1.407       .  A
C745        C753   1.378       .  A
C746        C760   1.417       .  A
C746        C754   1.390       .  A
C747        C755   1.378       .  A
C747        C758   1.408       .  A
C748        C756   1.390       .  A
C748        C759   1.418       .  A
C749        C750   1.373       .  A
C749        H761   1.082       .  S
C750        H762   1.082       .  S
C751        C752   1.384       .  A
C751        H763   1.082       .  S
C752        H764   1.082       .  S
C753        C754   1.366       .  A
C753        H765   1.076       .  S
C754        H766   1.078       .  S
C755        C756   1.367       .  A
C755        H767   1.076       .  S
C756        H768   1.078       .  S
C759       C1010   1.486       .  S
C760       C1037   1.487       .  S
C771        N772   1.362       .  A
C771        N776   1.355       .  A
C771        C924   1.481       .  S
N772        C773   1.365       .  A
C773        N774   1.362       .  A
C773       C1039   1.476       .  S
N774        C775   1.358       .  A
C775        N776   1.354       .  A
C775        C804   1.478       .  S
C777        N778   1.355       .  A
C777        N782   1.361       .  A
C777        C823   1.481       .  S
N778        C779   1.354       .  A
C779        N780   1.357       .  A
C779        C803   1.476       .  S
N780        C781   1.361       .  A
C781        N782   1.365       .  A
C781       C1012   1.474       .  S
N783        C788   1.351       .  A
N783        C787   1.351       .  A
N783        H815   1.040   1_545  S
N784        C791   1.352       .  A
N784        C792   1.352       .  A
N785        C790   1.355       .  A
N785        C789   1.356       .  A
N785        H816   1.040       .  S
N786        C793   1.353       .  A
N786        C794   1.352       .  A
C787        C795   1.387       .  A
C787        C803   1.408       .  A
C788        C804   1.408       .  A
C788        C796   1.387       .  A
C789        C797   1.388       .  A
C789        C806   1.422       .  A
C790        C805   1.422       .  A
C790        C798   1.388       .  A
C791        C803   1.406   1_565  A
C791        C799   1.378       .  A
C792        C806   1.417       .  A
C792        C800   1.390       .  A
C793        C801   1.378       .  A
C793        C804   1.407   1_565  A
C794        C802   1.391       .  A
C794        C805   1.418       .  A
C795        C796   1.373       .  A
C795        H807   1.082       .  S
C796        H808   1.082       .  S
C797        C798   1.384       .  A
C797        H809   1.082       .  S
C798        H810   1.082       .  S
C799        C800   1.366       .  A
C799        H811   1.076       .  S
C800        H812   1.078       .  S
C801        C802   1.367       .  A
C801        H813   1.076   1_565  S
C802        H814   1.078       .  S
C805        C983   1.486       .  S
C806        C939   1.487       .  S
C817        S818   1.803       .  S
C817        S821   1.802   1_545  S
C817        C825   1.357   1_455  D
S818        C819   1.796       .  S
C819        C873   1.482       .  S
C819        C820   1.346       .  D
C820        C827   1.481   1_545  S
C820        S821   1.795   1_545  S
C822        S826   1.796   1_545  S
C822        C823   1.346       .  D
C823        S824   1.795       .  S
S824        C825   1.802       .  S
C825        S826   1.803   1_545  S
C827        N828   1.355   1_565  A
C827        N832   1.361       .  A
N828        C829   1.354   1_545  A
C829        N830   1.357       .  A
C829        C859   1.476   1_565  S
N830        C831   1.361       .  A
C831        N832   1.365       .  A
C831        C954   1.474       .  S
C833        N834   1.355   1_565  A
C833        N838   1.361       .  A
C833        C921   1.481   1_565  S
N834        C835   1.354   1_545  A
C835        N836   1.358       .  A
C835        C860   1.478   1_565  S
N836        C837   1.362       .  A
C837        N838   1.365       .  A
C837        C969   1.476       .  S
N839        C844   1.351       .  A
N839        C843   1.351       .  A
N839        H871   1.040       .  S
N840        C847   1.352       .  A
N840        C848   1.352       .  A
N841        C846   1.355       .  A
N841        C845   1.356       .  A
N841        H872   1.040       .  S
N842        C849   1.353       .  A
N842        C850   1.352       .  A
C843        C851   1.387   1_545  A
C843        C859   1.408       .  A
C844        C860   1.408       .  A
C844        C852   1.387   1_545  A
C845        C853   1.388       .  A
C845        C862   1.422       .  A
C846        C861   1.422       .  A
C846        C854   1.388       .  A
C847        C859   1.406       .  A
C847        C855   1.378       .  A
C848        C862   1.417       .  A
C848        C856   1.390       .  A
C849        C857   1.378       .  A
C849        C860   1.407       .  A
C850        C858   1.391       .  A
C850        C861   1.418       .  A
C851        C852   1.373       .  A
C851        H863   1.082       .  S
C852        H864   1.082       .  S
C853        C854   1.384       .  A
C853        H865   1.082       .  S
C854        H866   1.082       .  S
C855        C856   1.366       .  A
C855        H867   1.076       .  S
C856        H868   1.078       .  S
C857        C858   1.367       .  A
C857        H869   1.076       .  S
C858        H870   1.078       .  S
C861        C996   1.486       .  S
C862       C1023   1.487       .  S
C873        N874   1.355       .  A
C873        N878   1.362       .  A
N874        C875   1.354       .  A
C875        N876   1.358       .  A
C875        C905   1.478       .  S
N876        C877   1.362       .  A
C877        N878   1.366       .  A
C877       C1025   1.476       .  S
C879        N880   1.355       .  A
C879        N884   1.362       .  A
C879        C922   1.481       .  S
N880        C881   1.354       .  A
C881        N882   1.358       .  A
C881        C906   1.477       .  S
N882        C883   1.361       .  A
C883        N884   1.365       .  A
C883        C998   1.474       .  S
N885        C890   1.351       .  A
N885        C889   1.351       .  A
N885        H917   1.040   1_545  S
N886        C893   1.353       .  A
N886        C894   1.352       .  A
N887        C892   1.356       .  A
N887        C891   1.355       .  A
N887        H918   1.040       .  S
N888        C895   1.353       .  A
N888        C896   1.352       .  A
C889        C897   1.387       .  A
C889        C905   1.409       .  A
C890        C906   1.409       .  A
C890        C898   1.387       .  A
C891        C899   1.388       .  A
C891        C908   1.422       .  A
C892        C907   1.422       .  A
C892        C900   1.388       .  A
C893        C905   1.408   1_565  A
C893        C901   1.378       .  A
C894        C908   1.418       .  A
C894        C902   1.390       .  A
C895        C903   1.378       .  A
C895        C906   1.407   1_565  A
C896        C904   1.390       .  A
C896        C907   1.417       .  A
C897        C898   1.373       .  A
C897        H909   1.082       .  S
C898        H910   1.082       .  S
C899        C900   1.384       .  A
C899        H911   1.082       .  S
C900        H912   1.082       .  S
C901        C902   1.367       .  A
C901        H913   1.076   1_565  S
C902        H914   1.078       .  S
C903        C904   1.366       .  A
C903        H915   1.076   1_565  S
C904        H916   1.078       .  S
C907        C967   1.487       .  S
C908        C956   1.486       .  S
C919        S920   1.803   1_545  S
C919        C927   1.357   1_456  D
S920        C921   1.796   1_565  S
C922        S923   1.795       .  S
C924        S928   1.796       .  S
C925        S926   1.796   1_545  S
S926        C927   1.803   1_566  S
O929       Ni937   1.925       .  S
O929        C939   1.283       .  A
O930       Ni937   1.918       .  S
O930        C940   1.280       .  A
O931       Ni937   1.925       .  S
O931        C941   1.283       .  A
O932       Ni937   1.920       .  S
O932        C942   1.280       .  A
O933       Ni938   1.926       .  S
O933        C942   1.283       .  A
O934       Ni938   1.924       .  S
O934        C941   1.281       .  A
O935       Ni938   1.925       .  S
O935        C940   1.283       .  A
O936       Ni938   1.919       .  S
O936        C939   1.280       .  A
Ni937      Ni938   2.388       .  S
O943       Ni951   1.924       .  S
O943        C953   1.281       .  A
O944       Ni951   1.926       .  S
O944        C954   1.283       .  A
O945       Ni951   1.919       .  S
O945        C955   1.280       .  A
O946       Ni951   1.925       .  S
O946        C956   1.283       .  A
O947       Ni952   1.918       .  S
O947        C956   1.280       .  A
O948       Ni952   1.925       .  S
O948        C955   1.283       .  A
O949       Ni952   1.920       .  S
O949        C954   1.280       .  A
O950       Ni952   1.925       .  S
O950        C953   1.283       .  A
Ni951      Ni952   2.388       .  S
O957        C967   1.283       .  A
O958       Ni965   1.919       .  S
O958        C968   1.280       .  A
O959       Ni965   1.926       .  S
O959        C969   1.283       .  A
O960        C970   1.281       .  A
O961       Ni966   1.925       .  S
O961        C970   1.283       .  A
O962        C969   1.281       .  A
O963        C968   1.283       .  A
O964       Ni966   1.919       .  S
O964        C967   1.280       .  A
O971       Ni979   1.925       .  S
O971        C981   1.283       .  A
O972        C982   1.281       .  A
O973        C983   1.283       .  A
O974       Ni979   1.919       .  S
O974        C984   1.280       .  A
O975        C984   1.283       .  A
O976       Ni980   1.919       .  S
O976        C983   1.280       .  A
O977       Ni980   1.925       .  S
O977        C982   1.283       .  A
O978        C981   1.281       .  A
O985       Ni993   1.919       .  S
O985        C995   1.280       .  A
O986        C996   1.283       .  A
O987        C997   1.281       .  A
O988       Ni993   1.925       .  S
O988        C998   1.283       .  A
O989        C998   1.281       .  A
O990       Ni994   1.925       .  S
O990        C997   1.283       .  A
O991       Ni994   1.919       .  S
O991        C996   1.280       .  A
O992        C995   1.283       .  A
O999      Ni1007   1.919       .  S
O999       C1009   1.280       .  A
O1000     Ni1007   1.925       .  S
O1000      C1010   1.283       .  A
O1001     Ni1007   1.923       .  S
O1001      C1011   1.281       .  A
O1002     Ni1007   1.926       .  S
O1002      C1012   1.283       .  A
O1003     Ni1008   1.920       .  S
O1003      C1012   1.280       .  A
O1004     Ni1008   1.925       .  S
O1004      C1011   1.283       .  A
O1005     Ni1008   1.918       .  S
O1005      C1010   1.280       .  A
O1006     Ni1008   1.925       .  S
O1006      C1009   1.283       .  A
Ni1007    Ni1008   2.388       .  S
O1013     Ni1021   1.919       .  S
O1013      C1023   1.280       .  A
O1014     Ni1021   1.925       .  S
O1014      C1024   1.283       .  A
O1015     Ni1021   1.924       .  S
O1015      C1025   1.281       .  A
O1016     Ni1021   1.926       .  S
O1016      C1026   1.283       .  A
O1017     Ni1022   1.920       .  S
O1017      C1026   1.280       .  A
O1018     Ni1022   1.925       .  S
O1018      C1025   1.283       .  A
O1019     Ni1022   1.918       .  S
O1019      C1024   1.280       .  A
O1020     Ni1022   1.925       .  S
O1020      C1023   1.283       .  A
Ni1021    Ni1022   2.388       .  S
O1027     Ni1035   1.919       .  S
O1027      C1037   1.280       .  A
O1028      C1038   1.283       .  A
O1029      C1039   1.281       .  A
O1030     Ni1035   1.925       .  S
O1030      C1040   1.283       .  A
O1031      C1040   1.281       .  A
O1032     Ni1036   1.925       .  S
O1032      C1039   1.283       .  A
O1033     Ni1036   1.919       .  S
O1033      C1038   1.280       .  A
O1034      C1037   1.283       .  A
