geometry optimzed in LAMMPS
_audit_creation_date              2020-11-30 
_audit_creation_method            'lammps2cif' 
_symmetry_space_group_name_H-M    'P1' 
_symmetry_Int_Tables_number       1 
_symmetry_cell_setting            triclinic 
loop_ 
_symmetry_equiv_pos_as_xyz 
  x,y,z 
_cell_length_a                    44.14245724 
_cell_length_b                    27.654315019581485 
_cell_length_c                    31.52869911919332 
_cell_angle_alpha                 89.18987525566128 
_cell_angle_beta                  89.91613246108432 
_cell_angle_gamma                 89.81772519349423 
loop_ 
_atom_site_label 
_atom_site_type_symbol 
_atom_site_fract_x 
_atom_site_fract_y 
_atom_site_fract_z 
_atom_site_charge 
C1          C  0.26434305  0.54407352  0.98603721     0.04000
C2          C  0.23218730  0.54398526  0.98437282     0.04000
C3          C  0.21870284  0.50111940  0.49108695    -0.16500
C4          C  0.23389121  0.45625769  0.49195857     0.04000
C5          C  0.26593608  0.45571196  0.49003429     0.04000
C6          C  0.28011279  0.49961676  0.98519288    -0.16500
H7          H  0.30459467  0.49961248  0.98788955     0.06100
H8          H  0.19423501  0.50172279  0.49404639     0.06100
C9          C  0.48664173  0.95088272  0.02710364     0.04000
C10         C  0.01871548  0.95151821  0.02743141     0.04000
C11         C  0.03369982  0.99631321  0.02755944    -0.16500
C12         C  0.01792434  0.04030962  0.02394338     0.04000
C13         C  0.48616782  0.03995891  0.02385752     0.04000
C14         C  0.47090982  0.99538939  0.02723634    -0.16500
H15         H  0.44639803  0.99531510  0.02533147     0.06100
H16         H  0.05822389  0.99684702  0.02578538     0.06100
O17         O  0.08010703  0.14753218  0.48204597    -0.79100
O18         O  0.15517272  0.33725694  0.46687891    -0.63800
O19         O  0.13154719  0.20728664  0.49264527    -1.10400
C20         C  0.08125596  0.27914296  0.10419342     1.07800
O21         O  0.16737316  0.34994659  0.02949227    -0.77000
O22         O  0.15573619  0.28687626  0.09366243    -0.64600
Ni23       Ni  0.11645687  0.16482460  0.45053299     1.34900
C24         C  0.15760884  0.24112493  0.09638005     0.86500
O25         O  0.16754006  0.25222465  0.43143305    -0.77600
O26         O  0.15106653  0.17774817  0.41467757    -0.87800
C27         C  0.16859598  0.36121729  0.99020487     0.86100
O28         O  0.09359058  0.21099934  0.41926644    -0.66000
O29         O  0.09745683  0.31683966  0.09802294    -0.85300
C30         C  0.09294503  0.25679937  0.41636731     0.86900
C31         C  0.16825735  0.21436380  0.40894496     1.08500
H32         H  0.09883337  0.30195020  0.00946011     0.40300
O33         O  0.11731039  0.28772532  0.02038176    -1.08000
O34         O  0.14180561  0.21282470  0.07407052    -0.64600
Ni35       Ni  0.10820490  0.22269444  0.03575427     1.26300
O36         O  0.10950215  0.28414724  0.43876081    -0.64900
O37         O  0.08310608  0.24090976  0.08216709    -0.77200
C38         C  0.08265248  0.13328179  0.02031043     0.86300
O39         O  0.09784222  0.15677609  0.04711744    -0.64300
Ni40       Ni  0.13169816  0.33131274  0.06191466     1.27400
Ni41       Ni  0.14285286  0.27181792  0.47757679     1.26100
H42         H  0.15231533  0.19285202  0.99993280     0.40800
O43         O  0.33000692  0.34794619  0.02944310    -0.79100
O44         O  0.40580039  0.15704438  0.04881199    -0.63800
O45         O  0.38061415  0.28578297  0.02017781    -1.10400
C46         C  0.32855919  0.21569374  0.41110064     1.07800
O47         O  0.41544176  0.14854442  0.48666514    -0.77000
O48         O  0.40415645  0.20836435  0.42054787    -0.64600
Ni49       Ni  0.36584948  0.32952554  0.06174322     1.34900
C50         C  0.40508086  0.25393689  0.41553961     0.86500
O51         O  0.41818179  0.24294799  0.08094164    -0.77600
O52         O  0.40004309  0.31616644  0.09861419    -0.87800
C53         C  0.42181621  0.13477825  0.02191996     0.86100
O54         O  0.34235490  0.28428129  0.09292549    -0.66000
O55         O  0.34569164  0.17893094  0.41731944    -0.85300
C56         C  0.34292533  0.23864486  0.09780151     0.86900
C57         C  0.41810318  0.28035267  0.10386375     1.08500
H58         H  0.34698713  0.19687803  0.50642503     0.40300
O59         O  0.36521243  0.21066617  0.49438524    -1.08000
O60         O  0.38837340  0.28276921  0.43605818    -0.64600
Ni61       Ni  0.35593618  0.27491522  0.47650776     1.26300
O62         O  0.36031044  0.21087744  0.07689335    -0.64900
O63         O  0.32964835  0.25433231  0.43260414    -0.77200
C64         C  0.32730907  0.35646181  0.98978551     0.86300
O65         O  0.34547494  0.34012114  0.46260500    -0.64300
Ni66       Ni  0.37984040  0.16571243  0.45383214     1.27400
Ni67       Ni  0.39276778  0.22187364  0.03653492     1.26100
H68         H  0.39827658  0.30127205  0.00808626     0.40800
O69         O  0.41495178  0.85408345  0.48421663    -0.79100
O70         O  0.34576926  0.66147817  0.46409466    -0.63800
O71         O  0.36461666  0.79168190  0.49128031    -1.10400
C72         C  0.41414653  0.71611931  0.11082139     1.07800
O73         O  0.33080088  0.64442027  0.03106219    -0.77000
O74         O  0.33878635  0.70840385  0.09275891    -0.64600
Ni75       Ni  0.38050547  0.83571331  0.44980974     1.34900
C76         C  0.33733674  0.75388286  0.09627172     0.86500
O77         O  0.33083981  0.74690770  0.42828775    -0.77600
O78         O  0.34775158  0.82168122  0.41131468    -0.87800
C79         C  0.32853170  0.63807885  0.99122369     0.86100
O80         O  0.40605758  0.79192894  0.42057661    -0.66000
O81         O  0.39729942  0.67925093  0.10508027    -0.85300
C82         C  0.40685186  0.74629333  0.41701346     0.86900
C83         C  0.33073894  0.78516860  0.40484347     1.08500
H84         H  0.39872810  0.69440851  0.01410646     0.40300
O85         O  0.38023822  0.70904263  0.02425866    -1.08000
O86         O  0.35542044  0.78332756  0.07733424    -0.64600
Ni87       Ni  0.39049967  0.77344729  0.04004614     1.26300
O88         O  0.38936739  0.71798115  0.43730705    -0.64900
O89         O  0.41376644  0.75375130  0.08740024    -0.77200
C90         C  0.42094167  0.85866183  0.02459445     0.86300
O91         O  0.40265570  0.83870722  0.05062050    -0.64300
Ni92       Ni  0.36489477  0.66442480  0.06563394     1.27400
Ni93       Ni  0.35592358  0.72705779  0.47560581     1.26100
H94         H  0.34603663  0.80583492  0.50166190     0.40800
O95         O  0.16446159  0.64266668  0.02646564    -0.79100
O96         O  0.10241487  0.84113729  0.05264731    -0.63800
O97         O  0.11723039  0.71110812  0.02051648    -1.10400
C98         C  0.16697733  0.78853195  0.40287755     1.07800
O99         O  0.07992198  0.85336350  0.47972896    -0.77000
O100        O  0.09314486  0.79059880  0.41734559    -0.64600
Ni101      Ni  0.13016331  0.66299685  0.06047041     1.34900
C102        C  0.09303040  0.74478480  0.41578618     0.86500
O103        O  0.08423946  0.75624318  0.08349498    -0.77600
O104        O  0.09717326  0.67885424  0.09834360    -0.87800
C105        C  0.08750960  0.86659275  0.02622770     0.86100
O106        O  0.15701012  0.70149362  0.09269922    -0.66000
O107        O  0.14990345  0.82518749  0.40950619    -0.85300
C108        C  0.16008074  0.74644588  0.09861683     0.86900
C109        C  0.08162611  0.71711606  0.10495959     1.08500
H110        H  0.15042570  0.81099012  0.49894274     0.40300
O111        O  0.13239279  0.79503137  0.48901007    -1.08000
O112        O  0.10990282  0.71772847  0.43869131    -0.64600
Ni113      Ni  0.14414236  0.73083738  0.47488084     1.26300
O114        O  0.14422605  0.77849657  0.07929595    -0.64900
O115        O  0.16708615  0.75041971  0.42611601    -0.77200
C116        C  0.16619390  0.63569493  0.98666216     0.86300
O117        O  0.15675131  0.66568415  0.46550670    -0.64300
Ni118      Ni  0.11584322  0.83723443  0.44676998     1.27400
Ni119      Ni  0.11082256  0.77550968  0.03893459     1.26100
H120        H  0.09823987  0.69984954  0.00915084     0.40800
O121        O  0.46962515  0.22778071  0.29669840    -0.72700
O122        O  0.02919668  0.25680640  0.21370147    -0.72700
O123        O  0.03039296  0.23023072  0.29625001    -0.72800
O124        O  0.46921508  0.25563882  0.21427239    -0.72800
O125        O  0.46766481  0.33312371  0.23292608    -0.72700
O126        O  0.02986000  0.30749588  0.31575701    -0.72700
O127        O  0.02878486  0.33462570  0.23128693    -0.72700
O128        O  0.46842778  0.30482046  0.31683463    -0.72800
Ni129      Ni  0.99968107  0.23994497  0.25476091     1.25400
Ni130      Ni  0.99860742  0.32295523  0.27484585     1.25400
C131        C  0.45954201  0.26078800  0.32083920     0.89500
C132        C  0.03791529  0.30031145  0.20735758     0.89400
C133        C  0.03990187  0.26410271  0.31992588     0.89500
C134        C  0.45926112  0.29879134  0.20876418     0.89600
O135        O  0.03002309  0.66203066  0.23427244    -0.72700
O136        O  0.47071194  0.69387449  0.32068340    -0.72700
O137        O  0.46865124  0.66323287  0.23821458    -0.72800
O138        O  0.03222190  0.69142427  0.31716108    -0.72800
O139        O  0.03199016  0.76804023  0.29383299    -0.72700
O140        O  0.46865409  0.74050929  0.21706593    -0.72700
O141        O  0.47139011  0.77063275  0.29781037    -0.72700
O142        O  0.02875081  0.73920950  0.21290573    -0.72800
Ni143      Ni  0.00049468  0.67415023  0.27843237     1.25400
Ni144      Ni  0.00025217  0.75665703  0.25476180     1.25400
C145        C  0.03821327  0.69588699  0.20845492     0.89500
C146        C  0.46190228  0.73803365  0.32351422     0.89400
C147        C  0.45899262  0.69714184  0.21357845     0.89500
C148        C  0.04200107  0.73495735  0.31881792     0.89600
O149        O  0.28077560  0.77344416  0.20214900    -0.72700
O150        O  0.21917302  0.77913753  0.28773450    -0.72700
O151        O  0.21996740  0.77129694  0.20154111    -0.72800
O152        O  0.27958088  0.77969505  0.28868198    -0.72800
O153        O  0.27901430  0.86013597  0.28310769    -0.72700
O154        O  0.21896407  0.85144959  0.19371508    -0.72700
O155        O  0.21772112  0.85944863  0.28051479    -0.72700
O156        O  0.28079095  0.85385640  0.19614142    -0.72800
Ni157      Ni  0.24991920  0.77318353  0.24511582     1.25400
Ni158      Ni  0.24909713  0.85919916  0.23806052     1.25400
C159        C  0.29058551  0.81248743  0.18445428     0.89500
C160        C  0.20910078  0.82046274  0.29927272     0.89400
C161        C  0.20993287  0.80932616  0.18258390     0.89500
C162        C  0.28820324  0.82104334  0.30164049     0.89600
O163        O  0.28107544  0.18829166  0.19829451    -0.72700
O164        O  0.21841245  0.16072942  0.28029763    -0.72700
O165        O  0.21975041  0.18936668  0.19641567    -0.72800
O166        O  0.27953314  0.16004203  0.28232699    -0.72800
O167        O  0.27886087  0.23770099  0.30050668    -0.72700
O168        O  0.22012355  0.26638805  0.21668719    -0.72700
O169        O  0.21902195  0.23828704  0.29881088    -0.72700
O170        O  0.28064710  0.26541163  0.21830189    -0.72800
Ni171      Ni  0.24970542  0.17161936  0.23849056     1.25400
Ni172      Ni  0.24966594  0.25451437  0.25908556     1.25400
C173        C  0.29064132  0.23189979  0.19453693     0.89500
C174        C  0.20957977  0.19499187  0.30438254     0.89400
C175        C  0.21054617  0.23328071  0.19237753     0.89500
C176        C  0.28784541  0.19423227  0.30677679     0.89600
C177        C  0.18777964  0.80358314  0.14726334    -0.14700
C178        C  0.18318849  0.75948340  0.13059855    -0.29800
H179        H  0.17525562  0.83480657  0.13542658     0.14300
H180        H  0.19645584  0.72920980  0.14288503     0.14900
C181        C  0.18753197  0.78847270  0.36581207    -0.14700
C182        C  0.18810613  0.82351590  0.33576541    -0.29800
H183        H  0.20232256  0.75722606  0.36253702     0.14300
H184        H  0.17421629  0.85573722  0.33908715     0.14900
C185        C  0.05837601  0.68594464  0.17215963    -0.14700
C186        C  0.05964033  0.71830764  0.13986756    -0.29800
H187        H  0.07227324  0.65347187  0.17217664     0.14300
H188        H  0.04509124  0.75010905  0.14046303     0.14900
C189        C  0.06440226  0.74952163  0.35026890    -0.14700
C190        C  0.07279369  0.72285090  0.38428292    -0.29800
H191        H  0.07307381  0.78608416  0.34631904     0.14300
H192        H  0.06520922  0.68576247  0.38845289     0.14900
C193        C  0.31028870  0.78603225  0.36743095    -0.14700
C194        C  0.30838438  0.82334551  0.33925914    -0.29800
H195        H  0.29676806  0.75387054  0.36229479     0.14300
H196        H  0.32094881  0.85640302  0.34459252     0.14900
C197        C  0.31281473  0.76996376  0.12479375    -0.14700
C198        C  0.31320127  0.80900703  0.14962107    -0.29800
H199        H  0.29486633  0.74363637  0.13003012     0.14300
H200        H  0.33036320  0.83672783  0.14551387     0.14900
C201        C  0.42851029  0.72542927  0.38651244    -0.14700
C202        C  0.44090651  0.75404615  0.35656056    -0.29800
H203        H  0.43299375  0.68677686  0.38711001     0.14300
H204        H  0.43531192  0.79237090  0.35575287     0.14900
C205        C  0.43551641  0.71813284  0.14635944    -0.14700
C206        C  0.43731998  0.68675379  0.17918719    -0.29800
H207        H  0.45017500  0.74969482  0.14599936     0.14300
H208        H  0.42372436  0.65410181  0.18020671     0.14900
C209        C  0.31278480  0.24611213  0.16201992    -0.14700
C210        C  0.32273603  0.21770919  0.13061198    -0.29800
H211        H  0.32021700  0.28353315  0.16310466     0.14300
H212        H  0.31648744  0.17979560  0.12950974     0.14900
C213        C  0.30673381  0.21573646  0.37617006    -0.14700
C214        C  0.30730256  0.18443741  0.34385059    -0.29800
H215        H  0.29106152  0.24616811  0.37511097     0.14300
H216        H  0.32215553  0.15305367  0.34437206     0.14900
C217        C  0.43990040  0.27959767  0.13898514    -0.14700
C218        C  0.43867446  0.30858971  0.17280933    -0.29800
H219        H  0.45652573  0.25047598  0.13851830     0.14300
H220        H  0.42288773  0.33874376  0.17395948     0.14900
C221        C  0.42619792  0.27419601  0.38352906    -0.14700
C222        C  0.43789580  0.24542508  0.35372631    -0.29800
H223        H  0.43138309  0.31256912  0.38357129     0.14300
H224        H  0.43171992  0.20739375  0.35359315     0.14900
C225        C  0.18990429  0.21524986  0.37369153    -0.14700
C226        C  0.18924106  0.18517167  0.34054736    -0.29800
H227        H  0.20587582  0.24513524  0.37350671     0.14300
H228        H  0.17413740  0.15425757  0.34014354     0.14900
C229        C  0.18898570  0.24838757  0.15940695    -0.14700
C230        C  0.17870398  0.22031098  0.12816925    -0.29800
H231        H  0.18174154  0.28595919  0.16068361     0.14300
H232        H  0.18499700  0.18235983  0.12682394     0.14900
C233        C  0.06225158  0.25030188  0.35248007    -0.14700
C234        C  0.07221099  0.27828425  0.38419210    -0.29800
H235        H  0.07008270  0.21305549  0.35085376     0.14300
H236        H  0.06552303  0.31601854  0.38606481     0.14900
C237        C  0.05946317  0.27762151  0.13939034    -0.14700
C238        C  0.05812333  0.31001290  0.17088398    -0.29800
H239        H  0.04499388  0.24587566  0.14079315     0.14300
H240        H  0.07174288  0.34264414  0.16991216     0.14900
C241        C  0.44257999  0.09560975  0.03622501    -0.14700
C242        C  0.46809435  0.08457085  0.01478097    -0.29800
H243        H  0.43161429  0.07834305  0.56834333     0.14300
H244        H  0.47513520  0.10767807  0.98845681     0.14900
C245        C  0.03577282  0.08493806  0.01479554    -0.14700
C246        C  0.06179038  0.09491577  0.03528193    -0.29800
H247        H  0.02373004  0.11276403  0.48896263     0.14300
H248        H  0.06817706  0.07380361  0.06320391     0.14900
C249        C  0.03770761  0.90742239  0.02151750    -0.14700
C250        C  0.06456458  0.90128229  0.04146166    -0.29800
H251        H  0.03119642  0.88229947  0.99700750     0.14300
H252        H  0.06380183  0.92282037  0.56033124     0.14900
C253        C  0.46887891  0.90558876  0.02049151    -0.14700
C254        C  0.44164439  0.89736304  0.03896501    -0.29800
H255        H  0.47023329  0.88708501  0.49389483     0.14300
H256        H  0.43384098  0.92073842  0.06415988     0.14900
C257        C  0.28253116  0.41023669  0.99724162    -0.14700
C258        C  0.30736309  0.39684504  0.97522108    -0.29800
H259        H  0.27562034  0.38852525  0.02452030     0.14300
H260        H  0.31521223  0.42396721  0.44702046     0.14900
C261        C  0.21484383  0.41059684  0.99578070    -0.14700
C262        C  0.18874937  0.40063615  0.97570222    -0.29800
H263        H  0.22248870  0.38666940  0.02121354     0.14300
H264        H  0.18340852  0.42212283  0.45300399     0.14900
C265        C  0.18733369  0.59799978  0.97126887    -0.14700
C266        C  0.21374455  0.58854655  0.99152058    -0.29800
H267        H  0.18072690  0.57668141  0.94415193     0.14300
H268        H  0.22599607  0.61382489  0.52554645     0.14900
C269        C  0.28185494  0.58874664  0.99534370    -0.14700
C270        C  0.30814198  0.59975070  0.97566268    -0.29800
H271        H  0.27400514  0.61144740  0.02097389     0.14300
H272        H  0.31755029  0.57591803  0.44963695     0.14900
C273        C  0.26682673  0.54425961  0.49070403     0.04000
C274        C  0.23476058  0.54510840  0.49226088     0.04000
C275        C  0.21700492  0.49943504  0.98273466    -0.16500
C276        C  0.23266410  0.45515416  0.98656086     0.04000
C277        C  0.26476257  0.45511713  0.98740649     0.04000
C278        C  0.28177476  0.49963863  0.48776689    -0.16500
H279        H  0.30632775  0.49894409  0.48849097     0.06100
H280        H  0.19245913  0.49930207  0.98371949     0.06100
C281        C  0.48094601  0.95584794  0.52586939     0.04000
C282        C  0.01277997  0.95571324  0.52275290     0.04000
C283        C  0.02846138  0.99985939  0.52378793    -0.16500
C284        C  0.01311354  0.04440633  0.52358879     0.04000
C285        C  0.48123887  0.04469601  0.52603832     0.04000
C286        C  0.46566540  0.00045912  0.52886593    -0.16500
H287        H  0.44111595  0.00092355  0.52849970     0.06100
H288        H  0.05288896  0.99972354  0.52010193     0.06100
O289        O  0.08483307  0.14213419  0.98067098    -0.79100
O290        O  0.15302280  0.33874666  0.96321579    -0.63800
O291        O  0.13386166  0.20729791  0.98915771    -1.10400
C292        C  0.08183057  0.28130570  0.60799050     1.07800
O293        O  0.17003478  0.34734454  0.53319404    -0.77000
O294        O  0.15876083  0.28047365  0.59454103    -0.64600
Ni295      Ni  0.11921593  0.16434783  0.94719309     1.34900
C296        C  0.15694214  0.23475455  0.59815204     0.86500
O297        O  0.16841821  0.25573257  0.92771849    -0.77600
O298        O  0.15186439  0.18207324  0.90910391    -0.87800
C299        C  0.17077852  0.35961210  0.49409258     0.86100
O300        O  0.09316352  0.20864418  0.91918912    -0.66000
O301        O  0.10133364  0.31519829  0.60458050    -0.85300
C302        C  0.09215831  0.25431798  0.91540036     0.86900
C303        C  0.16883458  0.21909158  0.90380357     1.08500
H304        H  0.10026141  0.30606828  0.51351263     0.40300
O305        O  0.11790164  0.28906487  0.52413616    -1.08000
O306        O  0.13774862  0.20992624  0.57801901    -0.64600
Ni307      Ni  0.10569987  0.22481359  0.53829555     1.26300
O308        O  0.10954255  0.28253835  0.93541686    -0.64900
O309        O  0.08042671  0.24523404  0.58342576    -0.77200
C310        C  0.07761844  0.13743448  0.52141597     0.86300
O311        O  0.09264377  0.16006357  0.54887195    -0.64300
Ni312      Ni  0.13492193  0.32885831  0.56690666     1.27400
Ni313      Ni  0.14300877  0.27271956  0.97401060     1.26100
H314        H  0.14941104  0.19165162  0.50410127     0.40800
O315        O  0.33502817  0.35879591  0.52906977    -0.79100
O316        O  0.40150121  0.16234355  0.55289033    -0.63800
O317        O  0.38301765  0.29245829  0.52053737    -1.10400
C318        C  0.33059903  0.20470341  0.90797422     1.07800
O319        O  0.42028116  0.14577166  0.98265560    -0.77000
O320        O  0.40561752  0.20646282  0.91814443    -0.64600
Ni321      Ni  0.37128409  0.34046233  0.55977972     1.34900
C322        C  0.40462967  0.25216681  0.91409320     0.86500
O323        O  0.41786985  0.24788775  0.58301323    -0.77600
O324        O  0.40601658  0.32603121  0.59470416    -0.87800
C325        C  0.41703894  0.13881183  0.52619912     0.86100
O326        O  0.34702086  0.30075944  0.59485387    -0.66000
O327        O  0.34904245  0.16969397  0.91442506    -0.85300
C328        C  0.34350680  0.25579372  0.60058298     0.86900
C329        C  0.42118792  0.28749166  0.60243053     1.08500
H330        H  0.34967849  0.18651872  0.00332958     0.40300
O331        O  0.36719381  0.20268984  0.99150560    -1.08000
O332        O  0.38708026  0.27891530  0.93544682    -0.64600
Ni333      Ni  0.35471301  0.26628279  0.97506016     1.26300
O334        O  0.35824031  0.22361339  0.58020764    -0.64900
O335        O  0.33001590  0.24345825  0.92966184    -0.77200
C336        C  0.33123260  0.36511437  0.48940689     0.86300
O337        O  0.34123129  0.33109124  0.96262756    -0.64300
Ni338      Ni  0.38376369  0.15993309  0.95048430     1.27400
Ni339      Ni  0.39149028  0.22811712  0.53925310     1.26100
H340        H  0.40147289  0.30450719  0.50778607     0.40800
O341        O  0.42163640  0.84582785  0.98594291    -0.79100
O342        O  0.34340916  0.66339104  0.96462132    -0.63800
O343        O  0.36762061  0.79151590  0.99149433    -1.10400
C344        C  0.41823336  0.72203085  0.60824374     1.07800
O345        O  0.33755181  0.63873078  0.53110673    -0.77000
O346        O  0.34301785  0.70287366  0.59240197    -0.64600
Ni347      Ni  0.38668403  0.83273810  0.95047567     1.34900
C348        C  0.33942369  0.74792374  0.59649613     0.86500
O349        O  0.33346112  0.75049759  0.92808867    -0.77600
O350        O  0.35335831  0.82372101  0.91175348    -0.87800
C351        C  0.33286176  0.63454792  0.49145787     0.86100
O352        O  0.40981738  0.78542928  0.92107864    -0.66000
O353        O  0.40320328  0.68316553  0.60244576    -0.85300
C354        C  0.40880991  0.73966322  0.91842541     0.86900
C355        C  0.33480389  0.78915987  0.90533891     1.08500
H356        H  0.40127166  0.69885606  0.51071093     0.40300
O357        O  0.38240959  0.71073332  0.52220036    -1.08000
O358        O  0.35550791  0.77996064  0.57735844    -0.64600
Ni359      Ni  0.38984376  0.77596322  0.53845170     1.26300
O360        O  0.39023592  0.71389821  0.93950903    -0.64900
O361        O  0.41566546  0.75940916  0.58472624    -0.77200
C362        C  0.41525323  0.86455840  0.52342290     0.86300
O363        O  0.39841225  0.84221063  0.54971909    -0.64300
Ni364      Ni  0.37110129  0.66356488  0.56400653     1.27400
Ni365      Ni  0.35627925  0.72788256  0.97615254     1.26100
H366        H  0.34951591  0.80809715  0.00069185     0.40800
O367        O  0.17421140  0.65855013  0.53100477    -0.79100
O368        O  0.09435037  0.84131991  0.54633871    -0.63800
O369        O  0.12083386  0.71330091  0.52352573    -1.10400
C370        C  0.17373763  0.78494977  0.90875911     1.07800
O371        O  0.09175703  0.86290238  0.98644836    -0.77000
O372        O  0.10033824  0.80618395  0.92024150    -0.64600
Ni373      Ni  0.13925564  0.67337581  0.56593939     1.34900
C374        C  0.09512747  0.76186794  0.91449974     0.86500
O375        O  0.08504768  0.75569450  0.58504422    -0.77600
O376        O  0.10558389  0.68370760  0.60407509    -0.87800
C377        C  0.07815394  0.86326287  0.51902947     0.86100
O378        O  0.16194336  0.72220708  0.59383341    -0.66000
O379        O  0.16030968  0.82474296  0.91747467    -0.85300
C380        C  0.16030287  0.76808220  0.59549348     0.86900
C381        C  0.08652804  0.71808710  0.60901924     1.08500
H382        H  0.15676131  0.80161795  0.00550913     0.40300
O383        O  0.13767406  0.79178376  0.99346648    -1.08000
O384        O  0.10899864  0.72764611  0.93447412    -0.64600
Ni385      Ni  0.14325119  0.72726489  0.97424991     1.26300
O386        O  0.14154123  0.79289436  0.57379060    -0.64900
O387        O  0.16951953  0.74538433  0.92890083    -0.77200
C388        C  0.17337917  0.64433148  0.49273581     0.86300
O389        O  0.15070239  0.66098904  0.96054124    -0.64300
Ni390      Ni  0.12690275  0.84190803  0.95430381     1.27400
Ni391      Ni  0.10825616  0.77696802  0.53698534     1.26100
H392        H  0.10304992  0.69610236  0.51432476     0.40800
O393        O  0.46664213  0.23044070  0.79365633    -0.72700
O394        O  0.02966553  0.25881328  0.71630669    -0.72700
O395        O  0.02708321  0.22897037  0.79774276    -0.72800
O396        O  0.46993398  0.26059505  0.71243022    -0.72800
O397        O  0.46918208  0.33763111  0.73258475    -0.72700
O398        O  0.02800548  0.30564955  0.81897255    -0.72700
O399        O  0.03047167  0.33603960  0.73577401    -0.72700
O400        O  0.46636535  0.30687577  0.81558669    -0.72800
Ni401      Ni  0.99831925  0.24246955  0.75455591     1.25400
Ni402      Ni  0.99862590  0.32476895  0.77692127     1.25400
C403        C  0.45646848  0.26330235  0.81784314     0.89500
C404        C  0.03948152  0.30194553  0.71155239     0.89400
C405        C  0.03676547  0.26153891  0.82257313     0.89500
C406        C  0.46109832  0.30434935  0.70718087     0.89600
O407        O  0.03132224  0.65200191  0.73225829    -0.72700
O408        O  0.47139287  0.68056161  0.81958893    -0.72700
O409        O  0.47010151  0.66127104  0.73421555    -0.72800
O410        O  0.03272632  0.66801779  0.81809339    -0.72800
O411        O  0.03670409  0.74743296  0.80644347    -0.72700
O412        O  0.47665219  0.73930569  0.71813240    -0.72700
O413        O  0.47638113  0.75862644  0.80233454    -0.72700
O414        O  0.03702668  0.73127981  0.72155593    -0.72800
Ni415      Ni  0.00126875  0.66276506  0.77652085     1.25400
Ni416      Ni  0.00693925  0.74707727  0.76154909     1.25400
C417        C  0.04313993  0.68778786  0.71164247     0.89500
C418        C  0.46435605  0.72532750  0.82492867     0.89400
C419        C  0.46390591  0.69843294  0.71117863     0.89500
C420        C  0.04435672  0.70883682  0.82714153     0.89600
O421        O  0.28640091  0.76407030  0.70641897    -0.72700
O422        O  0.22787558  0.76995628  0.79620053    -0.72700
O423        O  0.22643482  0.75191546  0.71214320    -0.72800
O424        O  0.28765543  0.77875511  0.79120616    -0.72800
O425        O  0.28116896  0.85818469  0.78206073    -0.72700
O426        O  0.22115668  0.83008270  0.69523181    -0.72700
O427        O  0.22034811  0.84808396  0.78091099    -0.72700
O428        O  0.28225534  0.84377498  0.69595879    -0.72800
Ni429      Ni  0.25733078  0.76352585  0.75177272     1.25400
Ni430      Ni  0.25101238  0.84807153  0.73794419     1.25400
C431        C  0.29371911  0.80298053  0.68617087     0.89500
C432        C  0.21509731  0.81064675  0.80397045     0.89400
C433        C  0.21415920  0.78534559  0.68992955     0.89500
C434        C  0.29322324  0.82203886  0.80205065     0.89600
O435        O  0.28184064  0.15694842  0.69704393    -0.72700
O436        O  0.21829500  0.15343940  0.78028699    -0.72700
O437        O  0.22082404  0.17279881  0.69474022    -0.72800
O438        O  0.27892925  0.14035969  0.78344340    -0.72800
O439        O  0.28547319  0.21931405  0.79330207    -0.72700
O440        O  0.22776225  0.25060673  0.70967656    -0.72700
O441        O  0.22584479  0.23144963  0.79381191    -0.72700
O442        O  0.28757276  0.23574810  0.70853320    -0.72800
Ni443      Ni  0.24975877  0.15284306  0.73831008     1.25400
Ni444      Ni  0.25694182  0.23684995  0.75161640     1.25400
C445        C  0.29446390  0.19739925  0.68806786     0.89500
C446        C  0.21249211  0.19122387  0.80182937     0.89400
C447        C  0.21504795  0.21794425  0.68801886     0.89500
C448        C  0.29051288  0.17549149  0.80422255     0.89600
C449        C  0.19206175  0.76841936  0.65852245    -0.14700
C450        C  0.18066276  0.79335742  0.62537550    -0.29800
H451        H  0.18590266  0.73053576  0.66225841     0.14300
H452        H  0.18554948  0.83156627  0.62100169     0.14900
C453        C  0.19489866  0.78287121  0.87267407    -0.14700
C454        C  0.19470184  0.81546274  0.84075411    -0.29800
H455        H  0.20970056  0.75146546  0.87086539     0.14300
H456        H  0.18001613  0.84700346  0.84223197     0.14900
C457        C  0.06329910  0.68063761  0.67460779    -0.14700
C458        C  0.06532210  0.71652134  0.64515120    -0.29800
H459        H  0.07602419  0.64722418  0.67140123     0.14300
H460        H  0.05111056  0.74845553  0.64844301     0.14900
C461        C  0.06657210  0.71111663  0.86246856    -0.14700
C462        C  0.07178968  0.75305859  0.88184597    -0.29800
H463        H  0.07819122  0.67838919  0.87289797     0.14300
H464        H  0.05928938  0.78485963  0.87098605     0.14900
C465        C  0.31405342  0.79196227  0.86883678    -0.14700
C466        C  0.31278600  0.82830953  0.83968776    -0.29800
H467        H  0.29969015  0.76047436  0.86480310     0.14300
H468        H  0.32566867  0.86132659  0.84355717     0.14900
C469        C  0.31533877  0.76077112  0.62647994    -0.14700
C470        C  0.31518311  0.80034106  0.65035268    -0.29800
H471        H  0.29886267  0.73253255  0.63344383     0.14300
H472        H  0.33091822  0.82974390  0.64423233     0.14900
C473        C  0.42972187  0.71567913  0.88819253    -0.14700
C474        C  0.44255946  0.74214991  0.85702201    -0.29800
H475        H  0.43369136  0.67695614  0.89049314     0.14300
H476        H  0.43740779  0.78060504  0.85509046     0.14900
C477        C  0.43968903  0.72590013  0.64422933    -0.14700
C478        C  0.44219743  0.69281616  0.67566298    -0.29800
H479        H  0.45339606  0.75843909  0.64547652     0.14300
H480        H  0.42887545  0.65989482  0.67456174     0.14900
C481        C  0.31658589  0.20072169  0.65265593    -0.14700
C482        C  0.32090261  0.24375390  0.63350670    -0.29800
H483        H  0.32856667  0.16871896  0.64207248     0.14300
H484        H  0.30771413  0.27443954  0.64453522     0.14900
C485        C  0.30934666  0.20236783  0.87222961    -0.14700
C486        C  0.30906670  0.16742582  0.84264924    -0.29800
H487        H  0.29452700  0.23361185  0.86828605     0.14300
H488        H  0.32260340  0.13477672  0.84622083     0.14900
C489        C  0.44330559  0.28647918  0.63673694    -0.14700
C490        C  0.44206662  0.31582206  0.67024201    -0.29800
H491        H  0.45913911  0.25623996  0.63684085     0.14300
H492        H  0.42675404  0.34662740  0.67089411     0.14900
C493        C  0.42454745  0.27468266  0.88195693    -0.14700
C494        C  0.43378635  0.24813136  0.84910167    -0.29800
H495        H  0.43144311  0.31214081  0.88500411     0.14300
H496        H  0.42569879  0.21120335  0.84621255     0.14900
C497        C  0.18997400  0.22109779  0.86765131    -0.14700
C498        C  0.19079070  0.18756926  0.83728170    -0.29800
H499        H  0.20498680  0.25213159  0.86549819     0.14300
H500        H  0.17633351  0.15590659  0.83946966     0.14900
C501        C  0.19403976  0.23602106  0.65528354    -0.14700
C502        C  0.17771679  0.20964816  0.62828571    -0.29800
H503        H  0.19197073  0.27520532  0.65383985     0.14300
H504        H  0.17869112  0.17040638  0.62953617     0.14900
C505        C  0.05803717  0.24594270  0.85557352    -0.14700
C506        C  0.07029215  0.27493076  0.88472155    -0.29800
H507        H  0.06396004  0.20775140  0.85542218     0.14300
H508        H  0.06542607  0.31346193  0.88459608     0.14900
C509        C  0.05980748  0.28152681  0.64277102    -0.14700
C510        C  0.06051595  0.31142328  0.67609228    -0.29800
H511        H  0.04301441  0.25282931  0.64208288     0.14300
H512        H  0.07621279  0.34152787  0.67724112     0.14900
C513        C  0.43783681  0.09996875  0.54067083    -0.14700
C514        C  0.46338172  0.08980921  0.51897321    -0.29800
H515        H  0.43646377  0.07469710  0.06436547     0.14300
H516        H  0.47032662  0.11380318  0.49320190     0.14900
C517        C  0.03097700  0.08897378  0.51472916    -0.14700
C518        C  0.05683635  0.09862032  0.53548747    -0.29800
H519        H  0.02850124  0.10836568  0.98879348     0.14300
H520        H  0.06314375  0.07690616  0.56309917     0.14900
C521        C  0.03057341  0.91108026  0.51369894    -0.14700
C522        C  0.05706506  0.90139029  0.53332287    -0.29800
H523        H  0.02287556  0.88755748  0.48865561     0.14300
H524        H  0.07044818  0.92398327  0.06803627     0.14900
C525        C  0.46268196  0.91148311  0.51846086    -0.14700
C526        C  0.43607005  0.90260898  0.53822393    -0.29800
H527        H  0.47735079  0.87996281  0.99751782     0.14300
H528        H  0.42911181  0.92446784  0.56490575     0.14900
C529        C  0.28385367  0.41076599  0.49656969    -0.14700
C530        C  0.30948079  0.40206663  0.47475045    -0.29800
H531        H  0.27743739  0.38654881  0.52245660     0.14300
H532        H  0.31337267  0.41633914  0.94627554     0.14900
C533        C  0.21617849  0.41134909  0.50087387    -0.14700
C534        C  0.19040048  0.40038416  0.48025949    -0.29800
H535        H  0.22404069  0.38740382  0.52616863     0.14300
H536        H  0.18191781  0.42215096  0.94822556     0.14900
C537        C  0.19227013  0.60280872  0.47976455    -0.14700
C538        C  0.21779678  0.59054649  0.50063598    -0.29800
H539        H  0.18492348  0.58156674  0.45295683     0.14300
H540        H  0.22087155  0.61244552  0.01662619     0.14900
C541        C  0.28550308  0.58810113  0.49826413    -0.14700
C542        C  0.31155350  0.59705371  0.47720944    -0.29800
H543        H  0.27884539  0.61185312  0.52380583     0.14300
H544        H  0.31518446  0.57938690  0.94811263     0.14900
C545        C  0.76474920  0.54356699  0.98534682     0.04000
C546        C  0.73257244  0.54366642  0.98428746     0.04000
C547        C  0.71858202  0.50132996  0.49017055    -0.16500
C548        C  0.73371932  0.45642667  0.49111838     0.04000
C549        C  0.76575988  0.45577329  0.48932976     0.04000
C550        C  0.78037639  0.49897835  0.98462036    -0.16500
H551        H  0.80488023  0.49880889  0.98688561     0.06100
H552        H  0.69411265  0.50199548  0.49308053     0.06100
C553        C  0.98652669  0.95079045  0.02687800     0.04000
C554        C  0.51886207  0.95141620  0.02732572     0.04000
C555        C  0.53393947  0.99615621  0.02730205    -0.16500
C556        C  0.51824413  0.04024230  0.02380024     0.04000
C557        C  0.98584568  0.03982696  0.02375485     0.04000
C558        C  0.97067893  0.99515958  0.02688711    -0.16500
H559        H  0.94617538  0.99488141  0.02476629     0.06100
H560        H  0.55845603  0.99659156  0.02531421     0.06100
O561        O  0.58037408  0.14733893  0.48209257    -0.79100
O562        O  0.65480296  0.33780232  0.46674742    -0.63800
O563        O  0.63155863  0.20776881  0.49289274    -1.10400
C564        C  0.58172269  0.27873151  0.10487517     1.07800
O565        O  0.66749877  0.34971296  0.02994115    -0.77000
O566        O  0.65584525  0.28674645  0.09408259    -0.64600
Ni567      Ni  0.61674621  0.16501467  0.45079041     1.34900
C568        C  0.65799419  0.24101337  0.09643546     0.86500
O569        O  0.66758300  0.25285561  0.43173566    -0.77600
O570        O  0.65136185  0.17823956  0.41506467    -0.87800
C571        C  0.66860265  0.36134553  0.99073056     0.86100
O572        O  0.59376738  0.21087957  0.41937125    -0.66000
O573        O  0.59764044  0.31669428  0.09849881    -0.85300
C574        C  0.59298111  0.25666383  0.41638203     0.86900
C575        C  0.66843210  0.21498482  0.40930746     1.08500
H576        H  0.59880897  0.30194566  0.01018526     0.40300
O577        O  0.61738505  0.28778687  0.02083378    -1.08000
O578        O  0.64240325  0.21270774  0.07382986    -0.64600
Ni579      Ni  0.60850655  0.22264722  0.03600370     1.26300
O580        O  0.60941967  0.28421775  0.43874028    -0.64900
O581        O  0.58373040  0.24045767  0.08290673    -0.77200
C582        C  0.58289904  0.13340898  0.02022804     0.86300
O583        O  0.59828410  0.15658715  0.04705163    -0.64300
Ni584      Ni  0.63184513  0.33122841  0.06239082     1.27400
Ni585      Ni  0.64272663  0.27234601  0.47768350     1.26100
H586        H  0.65240190  0.19328835  0.99942471     0.40800
O587        O  0.82980568  0.34712342  0.02937242    -0.79100
O588        O  0.90506975  0.15600010  0.04857726    -0.63800
O589        O  0.88031187  0.28490563  0.02010036    -1.10400
C590        C  0.82883150  0.21600120  0.41141795     1.07800
O591        O  0.91567946  0.14899065  0.48737868    -0.77000
O592        O  0.90486297  0.20893501  0.42136331    -0.64600
Ni593      Ni  0.86563718  0.32868556  0.06164880     1.34900
C594        C  0.90534774  0.25443301  0.41577588     0.86500
O595        O  0.91760973  0.24169585  0.08102906    -0.77600
O596        O  0.89984201  0.31522564  0.09845709    -0.87800
C597        C  0.92119569  0.13396046  0.02168228     0.86100
O598        O  0.84212423  0.28355026  0.09292861    -0.66000
O599        O  0.84635712  0.17963992  0.41728009    -0.85300
C600        C  0.84250618  0.23789325  0.09766837     0.86900
C601        C  0.91769811  0.27917867  0.10386687     1.08500
H602        H  0.84736931  0.19730569  0.50682026     0.40300
O603        O  0.86554309  0.21122067  0.49473847    -1.08000
O604        O  0.88827463  0.28318000  0.43583417    -0.64600
Ni605      Ni  0.85606317  0.27533610  0.47672462     1.26300
O606        O  0.85969287  0.21001146  0.07658287    -0.64900
O607        O  0.82957556  0.25441250  0.43323243    -0.77200
C608        C  0.82718331  0.35579713  0.98973391     0.86300
O609        O  0.84543514  0.34036387  0.46260559    -0.64300
Ni610      Ni  0.88029269  0.16630842  0.45421962     1.27400
Ni611      Ni  0.89225340  0.22091007  0.03641521     1.26100
H612        H  0.89803199  0.30027230  0.00805663     0.40800
O613        O  0.91475589  0.85417765  0.48384068    -0.79100
O614        O  0.84576691  0.66109412  0.46402544    -0.63800
O615        O  0.86463260  0.79126129  0.49117115    -1.10400
C616        C  0.91441395  0.71559753  0.11072489     1.07800
O617        O  0.83179821  0.64239354  0.03031379    -0.77000
O618        O  0.83860871  0.70725011  0.09160561    -0.64600
Ni619      Ni  0.88047667  0.83511073  0.44946071     1.34900
C620        C  0.83749679  0.75266081  0.09592088     0.86500
O621        O  0.83042354  0.74639404  0.42868018    -0.77600
O622        O  0.84787841  0.82056828  0.41090440    -0.87800
C623        C  0.82926729  0.63693175  0.99040141     0.86100
O624        O  0.90630652  0.79126997  0.42067691    -0.66000
O625        O  0.89720834  0.67910598  0.10534811    -0.85300
C626        C  0.90682502  0.74564992  0.41685154     0.86900
C627        C  0.83055871  0.78434205  0.40487481     1.08500
H628        H  0.89912744  0.69364382  0.01372922     0.40300
O629        O  0.88065313  0.70824811  0.02396843    -1.08000
O630        O  0.85597403  0.78212964  0.07772779    -0.64600
Ni631      Ni  0.89091506  0.77264071  0.03995170     1.26300
O632        O  0.88905299  0.71752610  0.43683882    -0.64900
O633        O  0.91448902  0.75282326  0.08686020    -0.77200
C634        C  0.92125085  0.85798206  0.02474141     0.86300
O635        O  0.90303819  0.83786855  0.05076673    -0.64300
Ni636      Ni  0.86534050  0.66351604  0.06531887     1.27400
Ni637      Ni  0.85587240  0.72660651  0.47559243     1.26100
H638        H  0.84611310  0.80548063  0.50169314     0.40800
O639        O  0.66460835  0.64170748  0.02665456    -0.79100
O640        O  0.60240149  0.84053893  0.05218405    -0.63800
O641        O  0.61743116  0.71033092  0.02064356    -1.10400
C642        C  0.66710505  0.78877291  0.40341204     1.07800
O643        O  0.58030614  0.85370320  0.48079820    -0.77000
O644        O  0.59324228  0.79134864  0.41797982    -0.64600
Ni645      Ni  0.63049301  0.66254141  0.06086300     1.34900
C646        C  0.59298150  0.74555273  0.41621589     0.86500
O647        O  0.58430716  0.75578064  0.08334325    -0.77600
O648        O  0.59772131  0.67883978  0.09909380    -0.87800
C649        C  0.58757416  0.86597685  0.02565609     0.86100
O650        O  0.65757273  0.70133951  0.09238470    -0.66000
O651        O  0.65013613  0.82552428  0.41019878    -0.85300
C652        C  0.66038483  0.74632142  0.09836324     0.86900
C653        C  0.58198485  0.71700651  0.10535552     1.08500
H654        H  0.65066954  0.81080212  0.49969211     0.40300
O655        O  0.63257702  0.79505026  0.48971649    -1.08000
O656        O  0.60977634  0.71825102  0.43902834    -0.64600
Ni657      Ni  0.64408818  0.73087158  0.47527380     1.26300
O658        O  0.64424800  0.77817169  0.07924549    -0.64900
O659        O  0.66708454  0.75055432  0.42653607    -0.77200
C660        C  0.66640154  0.63487948  0.98682705     0.86300
O661        O  0.65647811  0.66569453  0.46563298    -0.64300
Ni662      Ni  0.61613141  0.83758019  0.44764121     1.27400
Ni663      Ni  0.61091707  0.77484629  0.03876849     1.26100
H664        H  0.59846458  0.69889487  0.00933830     0.40800
O665        O  0.96983935  0.22778648  0.29684115    -0.72700
O666        O  0.52923659  0.25667102  0.21401115    -0.72700
O667        O  0.53018920  0.22981676  0.29644870    -0.72800
O668        O  0.96918372  0.25521300  0.21424957    -0.72800
O669        O  0.96750010  0.33278929  0.23258428    -0.72700
O670        O  0.52986287  0.30705515  0.31605033    -0.72700
O671        O  0.52896333  0.33445669  0.23169565    -0.72700
O672        O  0.96844234  0.30493699  0.31663409    -0.72800
Ni673      Ni  0.49958756  0.23991643  0.25484921     1.25400
Ni674      Ni  0.49869910  0.32285737  0.27517149     1.25400
C675        C  0.95971967  0.26086019  0.32090599     0.89500
C676        C  0.53807944  0.30011830  0.20777323     0.89400
C677        C  0.53978216  0.26359533  0.32016513     0.89500
C678        C  0.95914031  0.29827949  0.20856831     0.89600
O679        O  0.53007774  0.66295494  0.23489265    -0.72700
O680        O  0.97098436  0.69275959  0.32065939    -0.72700
O681        O  0.96865537  0.66238471  0.23806285    -0.72800
O682        O  0.53192990  0.69271368  0.31768642    -0.72800
O683        O  0.53175470  0.76923233  0.29412274    -0.72700
O684        O  0.96869070  0.73973133  0.21710838    -0.72700
O685        O  0.97166481  0.76956001  0.29791255    -0.72700
O686        O  0.52878883  0.74000943  0.21318219    -0.72800
Ni687      Ni  0.50036727  0.67521082  0.27876243     1.25400
Ni688      Ni  0.50013054  0.75762544  0.25485244     1.25400
C689        C  0.53834133  0.69668199  0.20899600     0.89500
C690        C  0.96223924  0.73695270  0.32364647     0.89400
C691        C  0.95900983  0.69639177  0.21353276     0.89500
C692        C  0.54168497  0.73626500  0.31930449     0.89600
O693        O  0.78057108  0.77252012  0.20194791    -0.72700
O694        O  0.71918509  0.77904748  0.28797784    -0.72700
O695        O  0.71974092  0.77110545  0.20170052    -0.72800
O696        O  0.77957795  0.77887081  0.28855038    -0.72800
O697        O  0.77937800  0.85931006  0.28287156    -0.72700
O698        O  0.71903163  0.85125668  0.19382420    -0.72700
O699        O  0.71809013  0.85935608  0.28072598    -0.72700
O700        O  0.78088800  0.85291315  0.19587143    -0.72800
Ni701      Ni  0.74979592  0.77268030  0.24512989     1.25400
Ni702      Ni  0.74933013  0.85868475  0.23800687     1.25400
C703        C  0.79052119  0.81143813  0.18417353     0.89500
C704        C  0.70936205  0.82049729  0.29961736     0.89400
C705        C  0.70985582  0.80920880  0.18270684     0.89500
C706        C  0.78838694  0.82013816  0.30144408     0.89600
O707        O  0.78104432  0.18797526  0.19870265    -0.72700
O708        O  0.71844671  0.16119855  0.28088973    -0.72700
O709        O  0.71976815  0.18935584  0.19693672    -0.72800
O710        O  0.77958197  0.16020998  0.28282593    -0.72800
O711        O  0.77885758  0.23786879  0.30100961    -0.72700
O712        O  0.72048285  0.26656063  0.21667636    -0.72700
O713        O  0.71901102  0.23892628  0.29891133    -0.72700
O714        O  0.78098906  0.26510301  0.21870261    -0.72800
Ni715      Ni  0.74971289  0.17169410  0.23902271     1.25400
Ni716      Ni  0.74984240  0.25469357  0.25932782     1.25400
C717        C  0.79079564  0.23146658  0.19492156     0.89500
C718        C  0.70957095  0.19566403  0.30470700     0.89400
C719        C  0.71077526  0.23333945  0.19258280     0.89500
C720        C  0.78789833  0.19442164  0.30725161     0.89600
C721        C  0.68774815  0.80356989  0.14731575    -0.14700
C722        C  0.68351366  0.75959177  0.13022799    -0.29800
H723        H  0.67498182  0.83469348  0.13579886     0.14300
H724        H  0.69707470  0.72948019  0.14218225     0.14900
C725        C  0.68767484  0.78866497  0.36628700    -0.14700
C726        C  0.68849476  0.82382775  0.33632177    -0.29800
H727        H  0.70224791  0.75718618  0.36285659     0.14300
H728        H  0.67484406  0.85628306  0.33979693     0.14900
C729        C  0.55868242  0.68650152  0.17289960    -0.14700
C730        C  0.56009231  0.71861521  0.14042662    -0.29800
H731        H  0.57248344  0.65392351  0.17311472     0.14300
H732        H  0.54560906  0.75049813  0.14084589     0.14900
C733        C  0.56396771  0.75092578  0.35093827    -0.14700
C734        C  0.57265988  0.72391429  0.38461915    -0.29800
H735        H  0.57239275  0.78767129  0.34731348     0.14300
H736        H  0.56532376  0.68664899  0.38839106     0.14900
C737        C  0.81006000  0.78522619  0.36753229    -0.14700
C738        C  0.80855544  0.82227760  0.33905099    -0.29800
H739        H  0.79620310  0.75336414  0.36269560     0.14300
H740        H  0.82144887  0.85506768  0.34412623     0.14900
C741        C  0.81298188  0.76857761  0.12465090    -0.14700
C742        C  0.81318919  0.80777391  0.14933825    -0.29800
H743        H  0.79511709  0.74213543  0.12999660     0.14300
H744        H  0.83023826  0.83564022  0.14505781     0.14900
C745        C  0.92847814  0.72453418  0.38641207    -0.14700
C746        C  0.94141796  0.75312023  0.35690019    -0.29800
H747        H  0.93244043  0.68574079  0.38659641     0.14300
H748        H  0.93630847  0.79161562  0.35648933     0.14900
C749        C  0.93562328  0.71765316  0.14639481    -0.14700
C750        C  0.93736366  0.68615391  0.17912136    -0.29800
H751        H  0.95028735  0.74921112  0.14613131     0.14300
H752        H  0.92380928  0.65345489  0.17997100     0.14900
C753        C  0.81292389  0.24541012  0.16232684    -0.14700
C754        C  0.82237643  0.21707902  0.13058313    -0.29800
H755        H  0.82070323  0.28264102  0.16356732     0.14300
H756        H  0.81577517  0.17933015  0.12928479     0.14900
C757        C  0.80690856  0.21587544  0.37659334    -0.14700
C758        C  0.80749516  0.18468674  0.34419998    -0.29800
H759        H  0.79106114  0.24608217  0.37572574     0.14300
H760        H  0.82249771  0.15348502  0.34453110     0.14900
C761        C  0.93944083  0.27828015  0.13907853    -0.14700
C762        C  0.93850148  0.30778672  0.17258959    -0.29800
H763        H  0.95581582  0.24879500  0.13888679     0.14300
H764        H  0.92295783  0.33827824  0.17341355     0.14900
C765        C  0.92633729  0.27461198  0.38354226    -0.14700
C766        C  0.93825731  0.24557654  0.35407556    -0.29800
H767        H  0.93118202  0.31310399  0.38306763     0.14300
H768        H  0.93238047  0.20741794  0.35441555     0.14900
C769        C  0.69005563  0.21598382  0.37405859    -0.14700
C770        C  0.68922899  0.18603713  0.34085552    -0.29800
H771        H  0.70609221  0.24578270  0.37389812     0.14300
H772        H  0.67403032  0.15524198  0.34044105     0.14900
C773        C  0.68927415  0.24836189  0.15952950    -0.14700
C774        C  0.67913499  0.22027157  0.12819811    -0.29800
H775        H  0.68195880  0.28589641  0.16083203     0.14300
H776        H  0.68555833  0.18238045  0.12678139     0.14900
C777        C  0.56208187  0.24970649  0.35272905    -0.14700
C778        C  0.57221556  0.27791425  0.38416876    -0.29800
H779        H  0.56974954  0.21236126  0.35131359     0.14300
H780        H  0.56565931  0.31572818  0.38577233     0.14900
C781        C  0.56004635  0.27699185  0.14018849    -0.14700
C782        C  0.55839741  0.30970832  0.17140209    -0.29800
H783        H  0.54584668  0.24494784  0.14179923     0.14300
H784        H  0.57177045  0.34259320  0.17020476     0.14900
C785        C  0.94195836  0.09482774  0.03593846    -0.14700
C786        C  0.96769030  0.08435332  0.01480314    -0.29800
H787        H  0.93146847  0.07860559  0.56896443     0.14300
H788        H  0.97486152  0.10789184  0.98884499     0.14900
C789        C  0.53613356  0.08480842  0.01457840    -0.14700
C790        C  0.56212984  0.09485016  0.03509613    -0.29800
H791        H  0.52392016  0.11238544  0.48869235     0.14300
H792        H  0.56853939  0.07370516  0.06298837     0.14900
C793        C  0.53777531  0.90719375  0.02125003    -0.14700
C794        C  0.56478667  0.90103295  0.04081442    -0.29800
H795        H  0.53102357  0.88190599  0.99700484     0.14300
H796        H  0.56461005  0.92360725  0.56107964     0.14900
C797        C  0.96892881  0.90541134  0.02015230    -0.14700
C798        C  0.94192930  0.89669313  0.03909415    -0.29800
H799        H  0.96984822  0.88753945  0.49309109     0.14300
H800        H  0.93428364  0.91972963  0.06462207     0.14900
C801        C  0.78255987  0.40967268  0.99726968    -0.14700
C802        C  0.80734749  0.39625934  0.97521572    -0.29800
H803        H  0.77559351  0.38788350  0.02447447     0.14300
H804        H  0.81508120  0.42391362  0.44664609     0.14900
C805        C  0.71490031  0.41052481  0.99666754    -0.14700
C806        C  0.68889414  0.40059917  0.97636631    -0.29800
H807        H  0.72240619  0.38675476  0.02229694     0.14300
H808        H  0.68280872  0.42293451  0.45277566     0.14900
C809        C  0.68760627  0.59734194  0.97136917    -0.14700
C810        C  0.71423686  0.58838002  0.99121201    -0.29800
H811        H  0.68081906  0.57560246  0.94460035     0.14300
H812        H  0.72609857  0.61413751  0.52462908     0.14900
C813        C  0.78243098  0.58818298  0.99422142    -0.14700
C814        C  0.80883427  0.59876475  0.97465001    -0.29800
H815        H  0.77463187  0.61120181  0.01966052     0.14300
H816        H  0.81793402  0.57512695  0.44967477     0.14900
C817        C  0.76675328  0.54430389  0.48999230     0.04000
C818        C  0.73468239  0.54527029  0.49144981     0.04000
C819        C  0.71725693  0.49921282  0.98340054    -0.16500
C820        C  0.73281403  0.45489208  0.98723337     0.04000
C821        C  0.76489770  0.45462499  0.98750987     0.04000
C822        C  0.78164126  0.49963657  0.48706350    -0.16500
H823        H  0.80619030  0.49884125  0.48789578     0.06100
H824        H  0.69272044  0.49922220  0.98484880     0.06100
C825        C  0.98068138  0.95608714  0.52526662     0.04000
C826        C  0.51306480  0.95555740  0.52384061     0.04000
C827        C  0.52867200  0.99980570  0.52465547    -0.16500
C828        C  0.51325407  0.04430762  0.52374093     0.04000
C829        C  0.98111902  0.04491520  0.52634051     0.04000
C830        C  0.96547992  0.00071166  0.52892606    -0.16500
H831        H  0.94093019  0.00127261  0.52890097     0.06100
H832        H  0.55312096  0.99973999  0.52129210     0.06100
O833        O  0.58477623  0.14280682  0.98064703    -0.79100
O834        O  0.65279723  0.33934204  0.96369158    -0.63800
O835        O  0.63385474  0.20771522  0.98895593    -1.10400
C836        C  0.58161965  0.28179273  0.60789247     1.07800
O837        O  0.66967407  0.34828760  0.53299142    -0.77000
O838        O  0.65874088  0.28121477  0.59414431    -0.64600
Ni839      Ni  0.61907235  0.16497257  0.94698633     1.34900
C840        C  0.65680751  0.23554688  0.59804807     0.86500
O841        O  0.66796181  0.25663124  0.92730250    -0.77600
O842        O  0.65164053  0.18279561  0.90876121    -0.87800
C843        C  0.67038587  0.36032995  0.49384432     0.86100
O844        O  0.59299099  0.20937610  0.91921625    -0.66000
O845        O  0.60124442  0.31552930  0.60466841    -0.85300
C846        C  0.59181154  0.25505654  0.91567415     0.86900
C847        C  0.66845192  0.21999429  0.90335453     1.08500
H848        H  0.60004538  0.30661489  0.51338088     0.40300
O849        O  0.61767342  0.28963351  0.52407879    -1.08000
O850        O  0.63743352  0.21069177  0.57827603    -0.64600
Ni851      Ni  0.60550811  0.22537665  0.53829116     1.26300
O852        O  0.60910393  0.28329056  0.93585555    -0.64900
O853        O  0.58008064  0.24590933  0.58315132    -0.77200
C854        C  0.57764094  0.13766084  0.52150432     0.86300
O855        O  0.59245355  0.16062613  0.54897707    -0.64300
Ni856      Ni  0.63468744  0.32949180  0.56682057     1.27400
Ni857      Ni  0.64282128  0.27323269  0.97405396     1.26100
H858        H  0.64942658  0.19231404  0.50451984     0.40800
O859        O  0.83509741  0.35946306  0.52899659    -0.79100
O860        O  0.90182151  0.16334513  0.55355679    -0.63800
O861        O  0.88325571  0.29326994  0.52051650    -1.10400
C862        C  0.83017019  0.20430319  0.90783599     1.07800
O863        O  0.91980712  0.14523144  0.98245934    -0.77000
O864        O  0.90528558  0.20600345  0.91789153    -0.64600
Ni865      Ni  0.87148299  0.34146747  0.55964285     1.34900
C866        C  0.90436313  0.25173813  0.91404181     0.86500
O867        O  0.91811487  0.24918518  0.58329946    -0.77600
O868        O  0.90630631  0.32743315  0.59457017    -0.87800
C869        C  0.91721132  0.13944960  0.52694532     0.86100
O870        O  0.84738535  0.30186652  0.59504632    -0.66000
O871        O  0.84863597  0.16928046  0.91412341    -0.85300
C872        C  0.84386318  0.25691158  0.60085228     0.86900
C873        C  0.92144494  0.28891567  0.60253858     1.08500
H874        H  0.84917937  0.18582199  0.00295956     0.40300
O875        O  0.86673597  0.20199264  0.99125627    -1.08000
O876        O  0.88676228  0.27835426  0.93540943    -0.64600
Ni877      Ni  0.85438430  0.26563849  0.97494533     1.26300
O878        O  0.85851810  0.22468644  0.58043880    -0.64900
O879        O  0.82963479  0.24300554  0.92957673    -0.77200
C880        C  0.83118119  0.36543567  0.48931413     0.86300
O881        O  0.84106940  0.33046355  0.96255176    -0.64300
Ni882      Ni  0.88335461  0.15941597  0.95016461     1.27400
Ni883      Ni  0.89179441  0.22904604  0.53955128     1.26100
H884        H  0.90166115  0.30528962  0.50759943     0.40800
O885        O  0.92188180  0.84529111  0.98607260    -0.79100
O886        O  0.84382209  0.66294168  0.96395642    -0.63800
O887        O  0.86785755  0.79095080  0.99167629    -1.10400
C888        C  0.91863566  0.72182772  0.60776637     1.07800
O889        O  0.83803055  0.63773766  0.53098252    -0.77000
O890        O  0.84328052  0.70223659  0.59202817    -0.64600
Ni891      Ni  0.88683855  0.83251880  0.95078174     1.34900
C892        C  0.83982790  0.74727725  0.59636728     0.86500
O893        O  0.83375988  0.75031950  0.92807319    -0.77600
O894        O  0.85346442  0.82379741  0.91217793    -0.87800
C895        C  0.83309845  0.63389695  0.49136446     0.86100
O896        O  0.90993135  0.78551854  0.92097995    -0.66000
O897        O  0.90348787  0.68303508  0.60222544    -0.85300
C898        C  0.90906163  0.73975977  0.91825339     0.86900
C899        C  0.83501072  0.78917272  0.90556669     1.08500
H900        H  0.90145719  0.69842045  0.51016210     0.40300
O901        O  0.88265079  0.71026477  0.52185340    -1.08000
O902        O  0.85596331  0.77933103  0.57734867    -0.64600
Ni903      Ni  0.89008908  0.77553854  0.53808663     1.26300
O904        O  0.89059040  0.71380028  0.93931351    -0.64900
O905        O  0.91617131  0.75903545  0.58404066    -0.77200
C906        C  0.91514657  0.86449653  0.52307146     0.86300
O907        O  0.89854931  0.84181299  0.54944682    -0.64300
Ni908      Ni  0.87149428  0.66306036  0.56378097     1.27400
Ni909      Ni  0.85660846  0.72738346  0.97599081     1.26100
H910        H  0.84975627  0.80739692  0.00107233     0.40800
O911        O  0.67400407  0.65812711  0.53107875    -0.79100
O912        O  0.59476592  0.84133180  0.54736471    -0.63800
O913        O  0.62076576  0.71324260  0.52390760    -1.10400
C914        C  0.67407419  0.78386748  0.90873788     1.07800
O915        O  0.59186405  0.86208733  0.98589542    -0.77000
O916        O  0.60069492  0.80511812  0.91989487    -0.64600
Ni917      Ni  0.63908798  0.67290077  0.56611922     1.34900
C918        C  0.59537205  0.76079690  0.91440329     0.86500
O919        O  0.58518661  0.75552424  0.58570763    -0.77600
O920        O  0.60544327  0.68318641  0.60430613    -0.87800
C921        C  0.57862270  0.86349973  0.52013127     0.86100
O922        O  0.66190500  0.72131026  0.59439177    -0.66000
O923        O  0.66068159  0.82371880  0.91738384    -0.85300
C924        C  0.66043988  0.76718472  0.59623775     0.86900
C925        C  0.58652492  0.71771428  0.60946067     1.08500
H926        H  0.65689812  0.80081823  0.00539131     0.40300
O927        O  0.63782539  0.79095854  0.99332159    -1.08000
O928        O  0.60916217  0.72662018  0.93454822    -0.64600
Ni929      Ni  0.64343439  0.72637761  0.97428598     1.26300
O930        O  0.64179478  0.79228357  0.57457349    -0.64900
O931        O  0.66972034  0.74433282  0.92887158    -0.77200
C932        C  0.67312716  0.64416923  0.49272949     0.86300
O933        O  0.65087819  0.66010673  0.96071224    -0.64300
Ni934      Ni  0.62714188  0.84097778  0.95399211     1.27400
Ni935      Ni  0.60842896  0.77691168  0.53769949     1.26100
H936        H  0.60291100  0.69626515  0.51465572     0.40800
O937        O  0.96670009  0.23088106  0.79380307    -0.72700
O938        O  0.52972341  0.25858943  0.71632397    -0.72700
O939        O  0.52702427  0.22903133  0.79786310    -0.72800
O940        O  0.96988155  0.26140922  0.71266485    -0.72800
O941        O  0.96934449  0.33833085  0.73313291    -0.72700
O942        O  0.52762662  0.30579728  0.81889494    -0.72700
O943        O  0.53027883  0.33587514  0.73567174    -0.72700
O944        O  0.96668337  0.30715594  0.81612279    -0.72800
Ni945      Ni  0.49833101  0.24209371  0.75449302     1.25400
Ni946      Ni  0.49834955  0.32450961  0.77658342     1.25400
C947        C  0.95665056  0.26363265  0.81818758     0.89500
C948        C  0.53943831  0.30179380  0.71157134     0.89400
C949        C  0.53650674  0.26177017  0.82267901     0.89500
C950        C  0.96114708  0.30524388  0.70759591     0.89600
O951        O  0.53120446  0.65135739  0.73252928    -0.72700
O952        O  0.97157375  0.68112521  0.81936059    -0.72700
O953        O  0.97021895  0.66175656  0.73406173    -0.72800
O954        O  0.53257694  0.66722688  0.81833820    -0.72800
O955        O  0.53672706  0.74661387  0.80665502    -0.72700
O956        O  0.97678974  0.73973427  0.71775456    -0.72700
O957        O  0.97636704  0.75917561  0.80191984    -0.72700
O958        O  0.53688384  0.73063520  0.72181077    -0.72800
Ni959      Ni  0.50111626  0.66214479  0.77675086     1.25400
Ni960      Ni  0.50687616  0.74646139  0.76187333     1.25400
C961        C  0.54302163  0.68715107  0.71191953     0.89500
C962        C  0.96444638  0.72586185  0.82461052     0.89400
C963        C  0.96402989  0.69884351  0.71093633     0.89500
C964        C  0.54435376  0.70796278  0.82729367     0.89600
O965        O  0.78718681  0.76342236  0.70652634    -0.72700
O966        O  0.72886183  0.76904436  0.79656912    -0.72700
O967        O  0.72727404  0.75069746  0.71251193    -0.72800
O968        O  0.78859550  0.77848221  0.79117911    -0.72800
O969        O  0.78168123  0.85782541  0.78203113    -0.72700
O970        O  0.72179592  0.82876041  0.69534660    -0.72700
O971        O  0.72093157  0.84699392  0.78097137    -0.72700
O972        O  0.78284475  0.84309118  0.69599179    -0.72800
Ni973      Ni  0.75823114  0.76276260  0.75198680     1.25400
Ni974      Ni  0.75158237  0.84720304  0.73797634     1.25400
C975        C  0.79439366  0.80234693  0.68623103     0.89500
C976        C  0.71587311  0.80960701  0.80418981     0.89400
C977        C  0.71490698  0.78395775  0.69018641     0.89500
C978        C  0.79390634  0.82184820  0.80202879     0.89600
O979        O  0.78178601  0.15784927  0.69670500    -0.72700
O980        O  0.71806545  0.15449136  0.77977963    -0.72700
O981        O  0.72081443  0.17388254  0.69428118    -0.72800
O982        O  0.77867073  0.14096976  0.78300358    -0.72800
O983        O  0.78529679  0.21985645  0.79319715    -0.72700
O984        O  0.72789920  0.25165945  0.70922926    -0.72700
O985        O  0.72568090  0.23246350  0.79338146    -0.72700
O986        O  0.78768360  0.23655172  0.70849479    -0.72800
Ni987      Ni  0.74961580  0.15376578  0.73787439     1.25400
Ni988      Ni  0.75692484  0.23770813  0.75136927     1.25400
C989        C  0.79452390  0.19826814  0.68791676     0.89500
C990        C  0.71224100  0.19229351  0.80131155     0.89400
C991        C  0.71514910  0.21904177  0.68754332     0.89500
C992        C  0.79026411  0.17594488  0.80393557     0.89600
C993        C  0.69287851  0.76685070  0.65873080    -0.14700
C994        C  0.68090477  0.79216765  0.62619402    -0.29800
H995        H  0.68716393  0.72874302  0.66199336     0.14300
H996        H  0.68538739  0.83057528  0.62239287     0.14900
C997        C  0.69537150  0.78169425  0.87277229    -0.14700
C998        C  0.69538819  0.81436889  0.84090862    -0.29800
H999        H  0.71010222  0.75020000  0.87101305     0.14300
H1000       H  0.68073929  0.84595545  0.84234037     0.14900
C1001       C  0.56321370  0.68005677  0.67491351    -0.14700
C1002       C  0.56530167  0.71605164  0.64556393    -0.29800
H1003       H  0.57591967  0.64663210  0.67165550     0.14300
H1004       H  0.55112696  0.74801689  0.64892271     0.14900
C1005       C  0.56672200  0.71010610  0.86243079    -0.14700
C1006       C  0.57192476  0.75196687  0.88192968    -0.29800
H1007       H  0.57846934  0.67738965  0.87259391     0.14300
H1008       H  0.55930122  0.78374188  0.87129722     0.14900
C1009       C  0.81430081  0.79212009  0.86907417    -0.14700
C1010       C  0.81327908  0.82833354  0.83978928    -0.29800
H1011       H  0.79985333  0.76072729  0.86504592     0.14300
H1012       H  0.82624255  0.86128107  0.84359971     0.14900
C1013       C  0.81587484  0.76010925  0.62652883    -0.14700
C1014       C  0.81578204  0.79972040  0.65034562    -0.29800
H1015       H  0.79942571  0.73186458  0.63360988     0.14300
H1016       H  0.83148001  0.82914439  0.64410755     0.14900
C1017       C  0.93000901  0.71600200  0.88796905    -0.14700
C1018       C  0.94266981  0.74258360  0.85674064    -0.29800
H1019       H  0.93414129  0.67732120  0.89027618     0.14300
H1020       H  0.93737899  0.78099058  0.85479735     0.14900
C1021       C  0.94010168  0.72580739  0.64369663    -0.14700
C1022       C  0.94231262  0.69312517  0.67547982    -0.29800
H1023       H  0.95404823  0.75810645  0.64461822     0.14300
H1024       H  0.92875284  0.66043450  0.67470571     0.14900
C1025       C  0.81669591  0.20168107  0.65256476    -0.14700
C1026       C  0.82136451  0.24491142  0.63392320    -0.29800
H1027       H  0.82836480  0.16958930  0.64153533     0.14300
H1028       H  0.80847179  0.27571635  0.64535158     0.14900
C1029       C  0.80883709  0.20208565  0.87222051    -0.14700
C1030       C  0.80874899  0.16753533  0.84232730    -0.29800
H1031       H  0.79386069  0.23318399  0.86856660     0.14300
H1032       H  0.82245453  0.13502517  0.84557108     0.14900
C1033       C  0.94356621  0.28804332  0.63688732    -0.14700
C1034       C  0.94213190  0.31700158  0.67065891    -0.29800
H1035       H  0.95955364  0.25801323  0.63683543     0.14300
H1036       H  0.92666361  0.34759661  0.67153586     0.14900
C1037       C  0.92445091  0.27453366  0.88222106    -0.14700
C1038       C  0.93390107  0.24826211  0.84932347    -0.29800
H1039       H  0.93127669  0.31199212  0.88552300     0.14300
H1040       H  0.92584689  0.21134465  0.84619504     0.14900
C1041       C  0.68954465  0.22217339  0.86710496    -0.14700
C1042       C  0.69041923  0.18869740  0.83666902    -0.29800
H1043       H  0.70454728  0.25322258  0.86501573     0.14300
H1044       H  0.67595311  0.15704146  0.83878235     0.14900
C1045       C  0.69418998  0.23708402  0.65476876    -0.14700
C1046       C  0.67766480  0.21057319  0.62811472    -0.29800
H1047       H  0.69224952  0.27627495  0.65309806     0.14300
H1048       H  0.67851493  0.17133188  0.62964553     0.14900
C1049       C  0.55770417  0.24644622  0.85586331    -0.14700
C1050       C  0.56987925  0.27557037  0.88500033    -0.29800
H1051       H  0.56368463  0.20827691  0.85580325     0.14300
H1052       H  0.56495091  0.31408164  0.88480550     0.14900
C1053       C  0.55960520  0.28193822  0.64265187    -0.14700
C1054       C  0.56049948  0.31142599  0.67621373    -0.29800
H1055       H  0.54265764  0.25348136  0.64174798     0.14300
H1056       H  0.57633854  0.34132305  0.67761157     0.14900
C1057       C  0.93783815  0.10039731  0.54146009    -0.14700
C1058       C  0.96336845  0.09021341  0.51974373    -0.29800
H1059       H  0.93568505  0.07351217  0.06377970     0.14300
H1060       H  0.97038425  0.11442090  0.49416453     0.14900
C1061       C  0.53110126  0.08886580  0.51468453    -0.14700
C1062       C  0.55684637  0.09885378  0.53561549    -0.29800
H1063       H  0.52883489  0.10824773  0.98859876     0.14300
H1064       H  0.56304851  0.07743870  0.56345001     0.14900
C1065       C  0.53092847  0.91087024  0.51524857    -0.14700
C1066       C  0.55763059  0.90170771  0.53448997    -0.29800
H1067       H  0.52308673  0.88676936  0.49072640     0.14300
H1068       H  0.57090353  0.92390882  0.06716728     0.14900
C1069       C  0.96236207  0.91181545  0.51779112    -0.14700
C1070       C  0.93587193  0.90271000  0.53779204    -0.29800
H1071       H  0.97729817  0.88020025  0.99675108     0.14300
H1072       H  0.92899151  0.92438592  0.56462802     0.14900
C1073       C  0.78365171  0.41083784  0.49610404    -0.14700
C1074       C  0.80934499  0.40214209  0.47445263    -0.29800
H1075       H  0.77722742  0.38676395  0.52208717     0.14300
H1076       H  0.81339967  0.41578814  0.94630407     0.14900
C1077       C  0.71596052  0.41160060  0.50005140    -0.14700
C1078       C  0.68997668  0.40100351  0.47982328    -0.29800
H1079       H  0.72394973  0.38739950  0.52507871     0.14300
H1080       H  0.68224679  0.42204286  0.94875758     0.14900
C1081       C  0.69199974  0.60275871  0.47949399    -0.14700
C1082       C  0.71774511  0.59071772  0.49992491    -0.29800
H1083       H  0.68445889  0.58142540  0.45284942     0.14300
H1084       H  0.72153861  0.61265944  0.01593249     0.14900
C1085       C  0.78551417  0.58801868  0.49767012    -0.14700
C1086       C  0.81179078  0.59649292  0.47704737    -0.29800
H1087       H  0.77874778  0.61203706  0.52295975     0.14300
H1088       H  0.81593361  0.57817213  0.94726168     0.14900
loop_ 
_geom_bond_atom_site_label_1 
_geom_bond_atom_site_label_2 
_geom_bond_distance 
_geom_bond_site_symmetry_2 
_ccdc_geom_bond_type 
C1            C2   1.420       .  A
C1            C6   1.411       .  A
C1          C269   1.492       .  S
C2          C275   1.406       .  A
C2          C266   1.494       .  S
C3            C4   1.408       .  A
C3          C274   1.411       .  A
C3            H8   1.084       .  S
C4            C5   1.416       .  A
C4          C533   1.493       .  S
C5          C278   1.404       .  A
C5          C529   1.483       .  S
C6          C277   1.408       .  A
C6            H7   1.084       .  S
C9           C14   1.411       .  A
C9          C554   1.422       .  A
C9          C253   1.497       .  S
C10          C11   1.406       .  A
C10         C553   1.421   1_455  A
C10         C249   1.491       .  S
C11          C12   1.403   1_565  A
C11          H16   1.084       .  S
C12         C557   1.416   1_455  A
C12         C245   1.491       .  S
C13          C14   1.409   1_545  A
C13         C556   1.416       .  A
C13         C242   1.492       .  S
C14          H15   1.084       .  S
O17         Ni23   1.944       .  S
O17         C310   1.273       .  A
O18         Ni41   1.916       .  S
O18         C299   1.270       .  A
O19         Ni23   1.907       .  S
O19         Ni41   1.908       .  S
O19        Ni307   1.903       .  S
O19         H314   0.966       .  S
C20         C237   1.468       .  S
C20          O37   1.276       .  A
C20          O29   1.279       .  A
O21         Ni40   1.943       .  S
O21          C27   1.274   1_554  A
O22         Ni40   1.897       .  S
O22          C24   1.269       .  A
Ni23         O26   1.930       .  S
Ni23         O28   1.892       .  S
C24         C230   1.479       .  S
C24          O34   1.271       .  A
O25         Ni41   1.900       .  S
O25          C31   1.273       .  A
O26          C31   1.278       .  A
C27         C262   1.476       .  S
C27         O290   1.266       .  A
O28          C30   1.269       .  A
O29         Ni40   1.930       .  S
C30         C234   1.484       .  S
C30          O36   1.275       .  A
C31         C225   1.465       .  S
H32          O33   0.966       .  S
O33         Ni35   1.900       .  S
O33         Ni40   1.903       .  S
O33        Ni313   1.899   1_554  S
O34         Ni35   1.931       .  S
Ni35         O39   1.910       .  S
Ni35         O37   1.907       .  S
Ni35        O291   1.906   1_554  S
O36         Ni41   1.942       .  S
C38         C246   1.479       .  S
C38          O39   1.267       .  A
C38         O289   1.274   1_554  A
Ni41        O305   1.899       .  S
H42         O291   0.966       .  S
O43         Ni49   1.945       .  S
O43          C64   1.275   1_554  A
O44         Ni67   1.916       .  S
O44          C53   1.268       .  A
O45         Ni49   1.909       .  S
O45         Ni67   1.910       .  S
O45        Ni333   1.911   1_554  S
O45          H68   0.966       .  S
C46         C213   1.464       .  S
C46          O63   1.275       .  A
C46          O55   1.278       .  A
O47         Ni66   1.937       .  S
O47         C325   1.273       .  A
O48         Ni66   1.901       .  S
O48          C50   1.269       .  A
Ni49         O52   1.938       .  S
Ni49         O54   1.892       .  S
C50         C221   1.479       .  S
C50          O60   1.268       .  A
O51         Ni67   1.895       .  S
O51          C57   1.270       .  A
O52          C57   1.279       .  A
C53         C241   1.483       .  S
C53         O319   1.272   1_554  A
O54          C56   1.269       .  A
O55         Ni66   1.929       .  S
C56         C210   1.478       .  S
C56          O62   1.274       .  A
C57         C217   1.468       .  S
H58          O59   0.966       .  S
O59         Ni61   1.900       .  S
O59         Ni66   1.906       .  S
O59        Ni339   1.899       .  S
O60         Ni61   1.927       .  S
Ni61         O65   1.905       .  S
Ni61         O63   1.902       .  S
Ni61        O317   1.902       .  S
O62         Ni67   1.937       .  S
C64         C258   1.488       .  S
C64         O337   1.271       .  A
O65         C336   1.265       .  A
Ni67        O331   1.898   1_554  S
O69         Ni75   1.942       .  S
O69         C362   1.274       .  A
O70         Ni93   1.909       .  S
O70         C351   1.268       .  A
O71         Ni75   1.908       .  S
O71         Ni93   1.901       .  S
O71        Ni359   1.904       .  S
O71          H94   0.966       .  S
C72         C205   1.468       .  S
C72          O89   1.268       .  A
C72          O81   1.279       .  A
O73         Ni92   1.946       .  S
O73          C79   1.275   1_554  A
O74         Ni92   1.886       .  S
O74          C76   1.266       .  A
Ni75         O78   1.933       .  S
Ni75         O80   1.899       .  S
C76         C197   1.478       .  S
C76          O86   1.283       .  A
O77         Ni93   1.932       .  S
O77          C83   1.282       .  A
O78          C83   1.279       .  A
C79         C270   1.482       .  S
C79         O342   1.269       .  A
O80          C82   1.269       .  A
O81         Ni92   1.945       .  S
C82         C201   1.477       .  S
C82          O88   1.267       .  A
C83         C193   1.486       .  S
H84          O85   0.966       .  S
O85         Ni87   1.912       .  S
O85         Ni92   1.908       .  S
O85        Ni365   1.916   1_554  S
O86         Ni87   1.964       .  S
Ni87         O91   1.918       .  S
Ni87         O89   1.886       .  S
Ni87        O343   1.895   1_554  S
O88         Ni93   1.924       .  S
C90         C254   1.486       .  S
C90          O91   1.272       .  A
C90         O341   1.274   1_554  A
Ni93        O357   1.927       .  S
O95        Ni101   1.940       .  S
O95         C116   1.275   1_554  A
O96        Ni119   1.907       .  S
O96         C105   1.267       .  A
O97        Ni101   1.906       .  S
O97        Ni119   1.901       .  S
O97        Ni385   1.904   1_554  S
O97         H120   0.966       .  S
C98         C181   1.478       .  S
C98         O115   1.275       .  A
C98         O107   1.281       .  A
O99        Ni118   1.949       .  S
O99         C377   1.275       .  A
O100       Ni118   1.890       .  S
O100        C102   1.269       .  A
Ni101       O104   1.935       .  S
Ni101       O106   1.901       .  S
C102        C190   1.475       .  S
C102        O112   1.272       .  A
O103       Ni119   1.901       .  S
O103        C109   1.274       .  A
O104        C109   1.279       .  A
C105        C250   1.477       .  S
C105        O371   1.273   1_554  A
O106        C108   1.267       .  A
O107       Ni118   1.938       .  S
C108        C178   1.484       .  S
C108        O114   1.276       .  A
C109        C186   1.467       .  S
H110        O111   0.966       .  S
O111       Ni113   1.907       .  S
O111       Ni118   1.903       .  S
O111       Ni391   1.910       .  S
O112       Ni113   1.933       .  S
Ni113       O117   1.911       .  S
Ni113       O115   1.913       .  S
Ni113       O369   1.904       .  S
O114       Ni119   1.952       .  S
C116        C265   1.483       .  S
C116        O389   1.272       .  A
O117        C388   1.269       .  A
Ni119       O383   1.909   1_554  S
O121       Ni673   1.894       .  S
O121        C131   1.275       .  A
O122       Ni129   1.890   1_455  S
O122        C132   1.277       .  A
O123       Ni129   1.901   1_455  S
O123        C133   1.278       .  A
O124       Ni673   1.900       .  S
O124        C134   1.280       .  A
O125       Ni674   1.930       .  S
O125        C134   1.282       .  A
O126       Ni130   1.933   1_455  S
O126        C133   1.283       .  A
O127       Ni130   1.936   1_455  S
O127        C132   1.284       .  A
O128       Ni674   1.934       .  S
O128        C131   1.285       .  A
Ni129       O665   1.896       .  S
Ni129       O668   1.900       .  S
Ni129      Ni130   2.390       .  S
Ni130       O669   1.931       .  S
Ni130       O672   1.933       .  S
C131        C222   1.468       .  S
C132        C238   1.476       .  S
C133        C233   1.470       .  S
C134        C218   1.475       .  S
O135       Ni143   1.938       .  S
O135        C145   1.284       .  A
O136       Ni687   1.933       .  S
O136        C146   1.285       .  A
O137       Ni687   1.930       .  S
O137        C147   1.282       .  A
O138       Ni143   1.925       .  S
O138        C148   1.282       .  A
O139       Ni144   1.897       .  S
O139        C148   1.277       .  A
O140       Ni688   1.897       .  S
O140        C147   1.280       .  A
O141       Ni688   1.892       .  S
O141        C146   1.275       .  A
O142       Ni144   1.888       .  S
O142        C145   1.277       .  A
Ni143       O680   1.935   1_455  S
Ni143       O681   1.929   1_455  S
Ni143      Ni144   2.391       .  S
Ni144       O684   1.896   1_455  S
Ni144       O685   1.891   1_455  S
C145        C185   1.477       .  S
C146        C202   1.466       .  S
C147        C206   1.479       .  S
C148        C189   1.463       .  S
O149       Ni157   1.920       .  S
O149        C159   1.284       .  A
O150       Ni157   1.917       .  S
O150        C160   1.282       .  A
O151       Ni157   1.909       .  S
O151        C161   1.280       .  A
O152       Ni157   1.910       .  S
O152        C162   1.279       .  A
O153       Ni158   1.941       .  S
O153        C162   1.286       .  A
O154       Ni158   1.946       .  S
O154        C161   1.286       .  A
O155       Ni158   1.925       .  S
O155        C160   1.281       .  A
O156       Ni158   1.930       .  S
O156        C159   1.281       .  A
Ni157      Ni158   2.386       .  S
C159        C198   1.487       .  S
C160        C182   1.480       .  S
C161        C177   1.494       .  S
C162        C194   1.487       .  S
O163       Ni171   1.928       .  S
O163        C173   1.283       .  A
O164       Ni171   1.929       .  S
O164        C174   1.282       .  A
O165       Ni171   1.932       .  S
O165        C175   1.284       .  A
O166       Ni171   1.933       .  S
O166        C176   1.283       .  A
O167       Ni172   1.889       .  S
O167        C176   1.277       .  A
O168       Ni172   1.893       .  S
O168        C175   1.276       .  A
O169       Ni172   1.893       .  S
O169        C174   1.279       .  A
O170       Ni172   1.898       .  S
O170        C173   1.277       .  A
Ni171      Ni172   2.391       .  S
C173        C209   1.466       .  S
C174        C226   1.473       .  S
C175        C229   1.466       .  S
C176        C214   1.473       .  S
C177        C178   1.351       .  D
C177        H179   1.086       .  S
C178        H180   1.087       .  S
C181        C182   1.346       .  D
C181        H183   1.087       .  S
C182        H184   1.086       .  S
C185        C186   1.347       .  D
C185        H187   1.086       .  S
C186        H188   1.088       .  S
C189        C190   1.345       .  D
C189        H191   1.088       .  S
C190        H192   1.086       .  S
C193        C194   1.354       .  D
C193        H195   1.087       .  S
C194        H196   1.086       .  S
C197        C198   1.343       .  D
C197        H199   1.089       .  S
C198        H200   1.086       .  S
C201        C202   1.341       .  D
C201        H203   1.086       .  S
C202        H204   1.087       .  S
C205        C206   1.344       .  D
C205        H207   1.088       .  S
C206        H208   1.086       .  S
C209        C210   1.345       .  D
C209        H211   1.088       .  S
C210        H212   1.086       .  S
C213        C214   1.346       .  D
C213        H215   1.088       .  S
C214        H216   1.086       .  S
C217        C218   1.344       .  D
C217        H219   1.088       .  S
C218        H220   1.086       .  S
C221        C222   1.342       .  D
C221        H223   1.086       .  S
C222        H224   1.087       .  S
C225        C226   1.345       .  D
C225        H227   1.088       .  S
C226        H228   1.086       .  S
C229        C230   1.343       .  D
C229        H231   1.087       .  S
C230        H232   1.086       .  S
C233        C234   1.348       .  D
C233        H235   1.087       .  S
C234        H236   1.086       .  S
C237        C238   1.348       .  D
C237        H239   1.088       .  S
C238        H240   1.086       .  S
C241        C242   1.349       .  D
C241        H515   1.086       .  S
C242        H244   1.086   1_554  S
H243        C513   1.086       .  S
C245        C246   1.350       .  D
C245        H519   1.086   1_554  S
C246        H248   1.087       .  S
H247        C517   1.086       .  S
C249        C250   1.352       .  D
C249        H251   1.086   1_554  S
C250        H524   1.086       .  S
H252        C522   1.087       .  S
C253        C254   1.354       .  D
C253        H527   1.086   1_554  S
C254        H256   1.086       .  S
H255        C525   1.086       .  S
C257        C277   1.495       .  S
C257        C258   1.350       .  D
C257        H259   1.086   1_556  S
C258        H532   1.086       .  S
H260        C530   1.087       .  S
C261        C276   1.489       .  S
C261        C262   1.346       .  D
C261        H263   1.086   1_556  S
C262        H536   1.086       .  S
H264        C534   1.086       .  S
C265        C266   1.353       .  D
C265        H267   1.086       .  S
C266        H540   1.086   1_556  S
H268        C538   1.086       .  S
C269        C270   1.349       .  D
C269        H271   1.086   1_556  S
C270        H544   1.086       .  S
H272        C542   1.086       .  S
C273        C274   1.416       .  A
C273        C278   1.402       .  A
C273        C541   1.490       .  S
C274        C538   1.487       .  S
C275        C276   1.408       .  A
C275        H280   1.084       .  S
C276        C277   1.417       .  A
C278        H279   1.084       .  S
C281        C826   1.419       .  A
C281        C286   1.408   1_565  A
C281        C525   1.492       .  S
C282        C825   1.419   1_455  A
C282        C283   1.406       .  A
C282        C521   1.492       .  S
C283        C284   1.404   1_565  A
C283        H288   1.084       .  S
C284        C829   1.415   1_455  A
C284        C517   1.488       .  S
C285        C828   1.415       .  A
C285        C286   1.407       .  A
C285        C514   1.488       .  S
C286        H287   1.084       .  S
O289       Ni295   1.944       .  S
O290       Ni313   1.906       .  S
O291       Ni295   1.906       .  S
O291       Ni313   1.909       .  S
C292        C509   1.464       .  S
C292        O309   1.273       .  A
C292        O301   1.278       .  A
O293       Ni312   1.944       .  S
O293        C299   1.274       .  A
O294       Ni312   1.902       .  S
O294        C296   1.271       .  A
Ni295       O298   1.934       .  S
Ni295       O300   1.888       .  S
C296        C502   1.485       .  S
C296        O306   1.269       .  A
O297       Ni313   1.903       .  S
O297        C303   1.272       .  A
O298        C303   1.279       .  A
C299        C534   1.484       .  S
O300        C302   1.268       .  A
O301       Ni312   1.933       .  S
C302        C506   1.475       .  S
C302        O308   1.271       .  A
C303        C497   1.473       .  S
H304        O305   0.966       .  S
O305       Ni307   1.905       .  S
O305       Ni312   1.909       .  S
O306       Ni307   1.930       .  S
Ni307       O311   1.908       .  S
Ni307       O309   1.898       .  S
O308       Ni313   1.931       .  S
C310        C518   1.477       .  S
C310        O311   1.265       .  A
O315       Ni321   1.934       .  S
O315        C336   1.271       .  A
O316       Ni339   1.914       .  S
O316        C325   1.270       .  A
O317       Ni321   1.898       .  S
O317       Ni339   1.903       .  S
O317        H340   0.966       .  S
C318        C485   1.470       .  S
C318        O335   1.280       .  A
C318        O327   1.277       .  A
O319       Ni338   1.942       .  S
O320       Ni338   1.896       .  S
O320        C322   1.269       .  A
Ni321       O324   1.926       .  S
Ni321       O326   1.883       .  S
C322        C493   1.473       .  S
C322        O332   1.269       .  A
O323       Ni339   1.894       .  S
O323        C329   1.271       .  A
O324        C329   1.278       .  A
C325        C513   1.479       .  S
O326        C328   1.264       .  A
O327       Ni338   1.926       .  S
C328        C482   1.474       .  S
C328        O334   1.280       .  A
C329        C489   1.458       .  S
H330        O331   0.966   1_554  S
O331       Ni333   1.906       .  S
O331       Ni338   1.908       .  S
O332       Ni333   1.926       .  S
Ni333       O337   1.922       .  S
Ni333       O335   1.916       .  S
O334       Ni339   1.957       .  S
C336        C530   1.470       .  S
O341       Ni347   1.945       .  S
O342       Ni365   1.913       .  S
O343       Ni347   1.908       .  S
O343       Ni365   1.900       .  S
O343        H366   0.966   1_556  S
C344        C477   1.484       .  S
C344        O361   1.268       .  A
C344        O353   1.280       .  A
O345       Ni364   1.942       .  S
O345        C351   1.274       .  A
O346       Ni364   1.880       .  S
O346        C348   1.264       .  A
Ni347       O350   1.932       .  S
Ni347       O352   1.907       .  S
C348        C469   1.468       .  S
C348        O358   1.281       .  A
O349       Ni365   1.917       .  S
O349        C355   1.281       .  A
O350        C355   1.279       .  A
C351        C542   1.477       .  S
O352        C354   1.270       .  A
O353       Ni364   1.949       .  S
C354        C473   1.487       .  S
C354        O360   1.269       .  A
C355        C465   1.473       .  S
H356        O357   0.966       .  S
O357       Ni359   1.912       .  S
O357       Ni364   1.908       .  S
O358       Ni359   1.952       .  S
Ni359       O363   1.910       .  S
Ni359       O361   1.903       .  S
O360       Ni365   1.933       .  S
C362        C526   1.480       .  S
C362        O363   1.268       .  A
O367       Ni373   1.941       .  S
O367        C388   1.275       .  A
O368       Ni391   1.907       .  S
O368        C377   1.267       .  A
O369       Ni373   1.904       .  S
O369       Ni391   1.898       .  S
O369        H392   0.966       .  S
C370        C453   1.473       .  S
C370        O387   1.271       .  A
C370        O379   1.281       .  A
O371       Ni390   1.944       .  S
O372       Ni390   1.883       .  S
O372        C374   1.263       .  A
Ni373       O376   1.933       .  S
Ni373       O378   1.909       .  S
C374        C462   1.481       .  S
C374        O384   1.284       .  A
O375       Ni391   1.915       .  S
O375        C381   1.279       .  A
O376        C381   1.278       .  A
C377        C522   1.479       .  S
O378        C380   1.272       .  A
O379       Ni390   1.938       .  S
C380        C450   1.486       .  S
C380        O386   1.269       .  A
C381        C458   1.474       .  S
H382        O383   0.966   1_554  S
O383       Ni385   1.907       .  S
O383       Ni390   1.903       .  S
O384       Ni385   1.966       .  S
Ni385       O389   1.916       .  S
Ni385       O387   1.902       .  S
O386       Ni391   1.929       .  S
C388        C537   1.479       .  S
O393       Ni945   1.890       .  S
O393        C403   1.275       .  A
O394       Ni401   1.886   1_455  S
O394        C404   1.277       .  A
O395       Ni401   1.896   1_455  S
O395        C405   1.277       .  A
O396       Ni945   1.890       .  S
O396        C406   1.279       .  A
O397       Ni946   1.924       .  S
O397        C406   1.281       .  A
O398       Ni402   1.924   1_455  S
O398        C405   1.282       .  A
O399       Ni402   1.935   1_455  S
O399        C404   1.284       .  A
O400       Ni946   1.930       .  S
O400        C403   1.284       .  A
Ni401       O937   1.889       .  S
Ni401       O940   1.891       .  S
Ni401      Ni402   2.392       .  S
Ni402       O941   1.925       .  S
Ni402       O944   1.933       .  S
C403        C494   1.462       .  S
C404        C510   1.473       .  S
C405        C505   1.462       .  S
C406        C490   1.467       .  S
O407       Ni415   1.949       .  S
O407        C417   1.288       .  A
O408       Ni959   1.953       .  S
O408        C418   1.289       .  A
O409       Ni959   1.918       .  S
O409        C419   1.279       .  A
O410       Ni415   1.918       .  S
O410        C420   1.278       .  A
O411       Ni416   1.933       .  S
O411        C420   1.288       .  A
O412       Ni960   1.933       .  S
O412        C419   1.286       .  A
O413       Ni960   1.886       .  S
O413        C418   1.273       .  A
O414       Ni416   1.885       .  S
O414        C417   1.275       .  A
Ni415       O952   1.952   1_455  S
Ni415       O953   1.918   1_455  S
Ni415      Ni416   2.386       .  S
Ni416       O956   1.932   1_455  S
Ni416       O957   1.886   1_455  S
C417        C457   1.482       .  S
C418        C474   1.474       .  S
C419        C478   1.485       .  S
C420        C461   1.487       .  S
O421       Ni429   1.920       .  S
O421        C431   1.285       .  A
O422       Ni429   1.920       .  S
O422        C432   1.284       .  A
O423       Ni429   1.882       .  S
O423        C433   1.272       .  A
O424       Ni429   1.881       .  S
O424        C434   1.274       .  A
O425       Ni430   1.950       .  S
O425        C434   1.288       .  A
O426       Ni430   1.956       .  S
O426        C433   1.289       .  A
O427       Ni430   1.914       .  S
O427        C432   1.278       .  A
O428       Ni430   1.915       .  S
O428        C431   1.277       .  A
Ni429      Ni430   2.388       .  S
C431        C470   1.476       .  S
C432        C454   1.474       .  S
C433        C449   1.473       .  S
C434        C466   1.481       .  S
O435       Ni443   1.924       .  S
O435        C445   1.279       .  A
O436       Ni443   1.917       .  S
O436        C446   1.279       .  A
O437       Ni443   1.950       .  S
O437        C447   1.288       .  A
O438       Ni443   1.947       .  S
O438        C448   1.287       .  A
O439       Ni444   1.879       .  S
O439        C448   1.274       .  A
O440       Ni444   1.881       .  S
O440        C447   1.272       .  A
O441       Ni444   1.915       .  S
O441        C446   1.282       .  A
O442       Ni444   1.916       .  S
O442        C445   1.285       .  A
Ni443      Ni444   2.389       .  S
C445        C481   1.484       .  S
C446        C498   1.474       .  S
C447        C501   1.470       .  S
C448        C486   1.477       .  S
C449        C450   1.342       .  D
C449        H451   1.088       .  S
C450        H452   1.086       .  S
C453        C454   1.341       .  D
C453        H455   1.087       .  S
C454        H456   1.087       .  S
C457        C458   1.353       .  D
C457        H459   1.086       .  S
C458        H460   1.088       .  S
C461        C462   1.339       .  D
C461        H463   1.086       .  S
C462        H464   1.088       .  S
C465        C466   1.353       .  D
C465        H467   1.088       .  S
C466        H468   1.086       .  S
C469        C470   1.337       .  D
C469        H471   1.089       .  S
C470        H472   1.086       .  S
C473        C474   1.343       .  D
C473        H475   1.086       .  S
C474        H476   1.088       .  S
C477        C478   1.344       .  D
C477        H479   1.087       .  S
C478        H480   1.086       .  S
C481        C482   1.341       .  D
C481        H483   1.086       .  S
C482        H484   1.088       .  S
C485        C486   1.353       .  D
C485        H487   1.088       .  S
C486        H488   1.086       .  S
C489        C490   1.342       .  D
C489        H491   1.088       .  S
C490        H492   1.086       .  S
C493        C494   1.340       .  D
C493        H495   1.086       .  S
C494        H496   1.088       .  S
C497        C498   1.343       .  D
C497        H499   1.087       .  S
C498        H500   1.086       .  S
C501        C502   1.341       .  D
C501        H503   1.087       .  S
C502        H504   1.086       .  S
C505        C506   1.343       .  D
C505        H507   1.087       .  S
C506        H508   1.086       .  S
C509        C510   1.346       .  D
C509        H511   1.088       .  S
C510        H512   1.086       .  S
C513        C514   1.349       .  D
C514        H516   1.086       .  S
C517        C518   1.346       .  D
C518        H520   1.087       .  S
C521        C522   1.348       .  D
C521        H523   1.086       .  S
C525        C526   1.350       .  D
C526        H528   1.086       .  S
C529        C530   1.346       .  D
C529        H531   1.086       .  S
C533        C534   1.349       .  D
C533        H535   1.086       .  S
C537        C538   1.346       .  D
C537        H539   1.087       .  S
C541        C542   1.349       .  D
C541        H543   1.086       .  S
C545        C546   1.421       .  A
C545        C550   1.411       .  A
C545        C813   1.492       .  S
C546        C819   1.405       .  A
C546        C810   1.494       .  S
C547        C818   1.411       .  A
C547        C548   1.408       .  A
C547        H552   1.084       .  S
C548        C549   1.415       .  A
C548       C1077   1.492       .  S
C549        C822   1.404       .  A
C549       C1073   1.483       .  S
C550        C821   1.408       .  A
C550        H551   1.084       .  S
C553        C558   1.410       .  A
C553        C797   1.496       .  S
C554        C555   1.407       .  A
C554        C793   1.493       .  S
C555        C556   1.403   1_565  A
C555        H560   1.084       .  S
C556        C789   1.491       .  S
C557        C558   1.409   1_545  A
C557        C786   1.491       .  S
C558        H559   1.084       .  S
O561       Ni567   1.944       .  S
O561        C854   1.273       .  A
O562       Ni585   1.915       .  S
O562        C843   1.269       .  A
O563       Ni567   1.908       .  S
O563       Ni585   1.909       .  S
O563       Ni851   1.903       .  S
O563        H858   0.966       .  S
C564        C781   1.467       .  S
C564        O581   1.276       .  A
C564        O573   1.279       .  A
O565       Ni584   1.942       .  S
O565        C571   1.274   1_554  A
O566       Ni584   1.896       .  S
O566        C568   1.269       .  A
Ni567       O570   1.930       .  S
Ni567       O572   1.892       .  S
C568        C774   1.478       .  S
C568        O578   1.271       .  A
O569       Ni585   1.899       .  S
O569        C575   1.272       .  A
O570        C575   1.278       .  A
C571        C806   1.475       .  S
C571        O834   1.266       .  A
O572        C574   1.269       .  A
O573       Ni584   1.930       .  S
C574        C778   1.483       .  S
C574        O580   1.274       .  A
C575        C769   1.464       .  S
H576        O577   0.966       .  S
O577       Ni857   1.899   1_554  S
O577       Ni579   1.899       .  S
O577       Ni584   1.902       .  S
O578       Ni579   1.931       .  S
Ni579       O583   1.910       .  S
Ni579       O581   1.907       .  S
Ni579       O835   1.906   1_554  S
O580       Ni585   1.941       .  S
C582        C790   1.479       .  S
C582        O833   1.274   1_554  A
C582        O583   1.268       .  A
Ni585       O849   1.898       .  S
H586        O835   0.966       .  S
O587       Ni593   1.945       .  S
O587        C608   1.275   1_554  A
O588       Ni611   1.914       .  S
O588        C597   1.268       .  A
O589       Ni593   1.908       .  S
O589       Ni611   1.909       .  S
O589       Ni877   1.911   1_554  S
O589        H612   0.966       .  S
C590        C757   1.465       .  S
C590        O607   1.274       .  A
C590        O599   1.278       .  A
O591       Ni610   1.936       .  S
O591        C869   1.273       .  A
O592       Ni610   1.900       .  S
O592        C594   1.268       .  A
Ni593       O596   1.938       .  S
Ni593       O598   1.892       .  S
C594        C765   1.479       .  S
C594        O604   1.268       .  A
O595       Ni611   1.896       .  S
O595        C601   1.270       .  A
O596        C601   1.279       .  A
C597        C785   1.481       .  S
C597        O863   1.273   1_554  A
O598        C600   1.269       .  A
O599       Ni610   1.930       .  S
C600        C754   1.477       .  S
C600        O606   1.273       .  A
C601        C761   1.468       .  S
H602        O603   0.966       .  S
O603       Ni883   1.900       .  S
O603       Ni605   1.900       .  S
O603       Ni610   1.907       .  S
O604       Ni605   1.929       .  S
Ni605       O609   1.904       .  S
Ni605       O607   1.901       .  S
Ni605       O861   1.903       .  S
O606       Ni611   1.936       .  S
C608        C802   1.486       .  S
C608        O881   1.270       .  A
O609        C880   1.264       .  A
Ni611       O875   1.897   1_554  S
O613       Ni619   1.941       .  S
O613        C906   1.273       .  A
O614       Ni637   1.907       .  S
O614        C895   1.267       .  A
O615       Ni619   1.910       .  S
O615       Ni637   1.902       .  S
O615       Ni903   1.904       .  S
O615        H638   0.966       .  S
C616        C749   1.466       .  S
C616        O633   1.267       .  A
C616        O625   1.278       .  A
O617       Ni636   1.944       .  S
O617        C623   1.275   1_554  A
O618       Ni636   1.886       .  S
O618        C620   1.266       .  A
Ni619       O622   1.932       .  S
Ni619       O624   1.901       .  S
C620        C741   1.480       .  S
C620        O630   1.284       .  A
O621       Ni637   1.931       .  S
O621        C627   1.282       .  A
O622        C627   1.279       .  A
C623        C814   1.482       .  S
C623        O886   1.269       .  A
O624        C626   1.269       .  A
O625       Ni636   1.945       .  S
C626        C745   1.478       .  S
C626        O632   1.267       .  A
C627        C737   1.486       .  S
H628        O629   0.966       .  S
O629       Ni909   1.917   1_554  S
O629       Ni631   1.913       .  S
O629       Ni636   1.909       .  S
O630       Ni631   1.967       .  S
Ni631       O635   1.918       .  S
Ni631       O633   1.884       .  S
Ni631       O887   1.894   1_554  S
O632       Ni637   1.924       .  S
C634        C798   1.485       .  S
C634        O885   1.274   1_554  A
C634        O635   1.272       .  A
Ni637       O901   1.927       .  S
O639       Ni645   1.942       .  S
O639        C660   1.275   1_554  A
O640       Ni663   1.907       .  S
O640        C649   1.267       .  A
O641       Ni645   1.907       .  S
O641       Ni663   1.902       .  S
O641       Ni929   1.905   1_554  S
O641        H664   0.966       .  S
C642        C725   1.480       .  S
C642        O659   1.275       .  A
C642        O651   1.281       .  A
O643       Ni662   1.948       .  S
O643        C921   1.275       .  A
O644       Ni662   1.891       .  S
O644        C646   1.269       .  A
Ni645       O648   1.938       .  S
Ni645       O650   1.900       .  S
C646        C734   1.476       .  S
C646        O656   1.273       .  A
O647       Ni663   1.900       .  S
O647        C653   1.273       .  A
O648        C653   1.279       .  A
C649        C794   1.478       .  S
C649        O915   1.274   1_554  A
O650        C652   1.267       .  A
O651       Ni662   1.939       .  S
C652        C722   1.484       .  S
C652        O658   1.276       .  A
C653        C730   1.469       .  S
H654        O655   0.966       .  S
O655       Ni935   1.911       .  S
O655       Ni657   1.906       .  S
O655       Ni662   1.904       .  S
O656       Ni657   1.934       .  S
Ni657       O661   1.910       .  S
Ni657       O659   1.914       .  S
Ni657       O913   1.904       .  S
O658       Ni663   1.952       .  S
C660        C809   1.483       .  S
C660        O933   1.271       .  A
O661        C932   1.268       .  A
Ni663       O927   1.909   1_554  S
O665        C675   1.276       .  A
O666       Ni673   1.889       .  S
O666        C676   1.277       .  A
O667       Ni673   1.901       .  S
O667        C677   1.278       .  A
O668        C678   1.280       .  A
O669        C678   1.282       .  A
O670       Ni674   1.931       .  S
O670        C677   1.283       .  A
O671       Ni674   1.937       .  S
O671        C676   1.284       .  A
O672        C675   1.285       .  A
Ni673      Ni674   2.390       .  S
C675        C766   1.469       .  S
C676        C782   1.476       .  S
C677        C777   1.470       .  S
C678        C762   1.476       .  S
O679       Ni687   1.937       .  S
O679        C689   1.284       .  A
O680        C690   1.285       .  A
O681        C691   1.281       .  A
O682       Ni687   1.926       .  S
O682        C692   1.282       .  A
O683       Ni688   1.898       .  S
O683        C692   1.277       .  A
O684        C691   1.280       .  A
O685        C690   1.275       .  A
O686       Ni688   1.890       .  S
O686        C689   1.277       .  A
Ni687      Ni688   2.390       .  S
C689        C729   1.478       .  S
C690        C746   1.467       .  S
C691        C750   1.478       .  S
C692        C733   1.464       .  S
O693       Ni701   1.922       .  S
O693        C703   1.285       .  A
O694       Ni701   1.919       .  S
O694        C704   1.283       .  A
O695       Ni701   1.909       .  S
O695        C705   1.280       .  A
O696       Ni701   1.909       .  S
O696        C706   1.279       .  A
O697       Ni702   1.941       .  S
O697        C706   1.286       .  A
O698       Ni702   1.946       .  S
O698        C705   1.286       .  A
O699       Ni702   1.926       .  S
O699        C704   1.281       .  A
O700       Ni702   1.931       .  S
O700        C703   1.281       .  A
Ni701      Ni702   2.386       .  S
C703        C742   1.489       .  S
C704        C726   1.482       .  S
C705        C721   1.494       .  S
C706        C738   1.486       .  S
O707       Ni715   1.927       .  S
O707        C717   1.283       .  A
O708       Ni715   1.928       .  S
O708        C718   1.282       .  A
O709       Ni715   1.931       .  S
O709        C719   1.284       .  A
O710       Ni715   1.933       .  S
O710        C720   1.283       .  A
O711       Ni716   1.889       .  S
O711        C720   1.278       .  A
O712       Ni716   1.894       .  S
O712        C719   1.276       .  A
O713       Ni716   1.893       .  S
O713        C718   1.279       .  A
O714       Ni716   1.898       .  S
O714        C717   1.277       .  A
Ni715      Ni716   2.392       .  S
C717        C753   1.465       .  S
C718        C770   1.472       .  S
C719        C773   1.465       .  S
C720        C758   1.473       .  S
C721        C722   1.351       .  D
C721        H723   1.086       .  S
C722        H724   1.087       .  S
C725        C726   1.347       .  D
C725        H727   1.087       .  S
C726        H728   1.086       .  S
C729        C730   1.347       .  D
C729        H731   1.086       .  S
C730        H732   1.088       .  S
C733        C734   1.345       .  D
C733        H735   1.088       .  S
C734        H736   1.086       .  S
C737        C738   1.354       .  D
C737        H739   1.087       .  S
C738        H740   1.086       .  S
C741        C742   1.343       .  D
C741        H743   1.088       .  S
C742        H744   1.086       .  S
C745        C746   1.341       .  D
C745        H747   1.086       .  S
C746        H748   1.087       .  S
C749        C750   1.343       .  D
C749        H751   1.088       .  S
C750        H752   1.086       .  S
C753        C754   1.345       .  D
C753        H755   1.088       .  S
C754        H756   1.086       .  S
C757        C758   1.346       .  D
C757        H759   1.088       .  S
C758        H760   1.086       .  S
C761        C762   1.345       .  D
C761        H763   1.088       .  S
C762        H764   1.086       .  S
C765        C766   1.342       .  D
C765        H767   1.086       .  S
C766        H768   1.087       .  S
C769        C770   1.345       .  D
C769        H771   1.088       .  S
C770        H772   1.086       .  S
C773        C774   1.343       .  D
C773        H775   1.087       .  S
C774        H776   1.086       .  S
C777        C778   1.348       .  D
C777        H779   1.087       .  S
C778        H780   1.086       .  S
C781        C782   1.348       .  D
C781        H783   1.088       .  S
C782        H784   1.086       .  S
C785        C786   1.349       .  D
C785       H1059   1.086       .  S
C786        H788   1.086   1_554  S
H787       C1057   1.086       .  S
C789        C790   1.350       .  D
C789       H1063   1.086   1_554  S
C790        H792   1.086       .  S
H791       C1061   1.086       .  S
C793        C794   1.352       .  D
C793        H795   1.086   1_554  S
C794       H1068   1.086       .  S
H796       C1066   1.087       .  S
C797        C798   1.353       .  D
C797       H1071   1.086   1_554  S
C798        H800   1.086       .  S
H799       C1069   1.086       .  S
C801        C821   1.494       .  S
C801        C802   1.349       .  D
C801        H803   1.086   1_556  S
C802       H1076   1.086       .  S
H804       C1074   1.087       .  S
C805        C820   1.488       .  S
C805        C806   1.346       .  D
C805        H807   1.086   1_556  S
C806       H1080   1.087       .  S
H808       C1078   1.086       .  S
C809        C810   1.353       .  D
C809        H811   1.086       .  S
C810       H1084   1.086   1_556  S
H812       C1082   1.086       .  S
C813        C814   1.349       .  D
C813        H815   1.086   1_556  S
C814       H1088   1.086       .  S
H816       C1086   1.086       .  S
C817        C818   1.417       .  A
C817        C822   1.401       .  A
C817       C1085   1.490       .  S
C818       C1082   1.488       .  S
C819        C820   1.407       .  A
C819        H824   1.084       .  S
C820        C821   1.416       .  A
C822        H823   1.084       .  S
C825        C830   1.409   1_565  A
C825       C1069   1.491       .  S
C826        C827   1.407       .  A
C826       C1065   1.492       .  S
C827        C828   1.404   1_565  A
C827        H832   1.084       .  S
C828       C1061   1.489       .  S
C829        C830   1.407       .  A
C829       C1058   1.488       .  S
C830        H831   1.084       .  S
O833       Ni839   1.943       .  S
O834       Ni857   1.905       .  S
O835       Ni839   1.904       .  S
O835       Ni857   1.908       .  S
C836       C1053   1.464       .  S
C836        O853   1.273       .  A
C836        O845   1.278       .  A
O837       Ni856   1.944       .  S
O837        C843   1.274       .  A
O838       Ni856   1.901       .  S
O838        C840   1.270       .  A
Ni839       O842   1.935       .  S
Ni839       O844   1.888       .  S
C840       C1046   1.484       .  S
C840        O850   1.269       .  A
O841       Ni857   1.904       .  S
O841        C847   1.272       .  A
O842        C847   1.280       .  A
C843       C1078   1.483       .  S
O844        C846   1.268       .  A
O845       Ni856   1.933       .  S
C846       C1050   1.476       .  S
C846        O852   1.271       .  A
C847       C1041   1.474       .  S
H848        O849   0.966       .  S
O849       Ni851   1.905       .  S
O849       Ni856   1.909       .  S
O850       Ni851   1.931       .  S
Ni851       O855   1.908       .  S
Ni851       O853   1.897       .  S
O852       Ni857   1.933       .  S
C854       C1062   1.478       .  S
C854        O855   1.265       .  A
O859       Ni865   1.936       .  S
O859        C880   1.272       .  A
O860       Ni883   1.914       .  S
O860        C869   1.270       .  A
O861       Ni865   1.900       .  S
O861       Ni883   1.903       .  S
O861        H884   0.966       .  S
C862       C1029   1.469       .  S
C862        O879   1.279       .  A
C862        O871   1.277       .  A
O863       Ni882   1.941       .  S
O864       Ni882   1.897       .  S
O864        C866   1.269       .  A
Ni865       O868   1.928       .  S
Ni865       O870   1.883       .  S
C866       C1037   1.474       .  S
C866        O876   1.268       .  A
O867       Ni883   1.896       .  S
O867        C873   1.272       .  A
O868        C873   1.278       .  A
C869       C1057   1.478       .  S
O870        C872   1.264       .  A
O871       Ni882   1.926       .  S
C872       C1026   1.474       .  S
C872        O878   1.280       .  A
C873       C1033   1.459       .  S
H874        O875   0.966   1_554  S
O875       Ni877   1.905       .  S
O875       Ni882   1.907       .  S
O876       Ni877   1.925       .  S
Ni877       O881   1.920       .  S
Ni877       O879   1.915       .  S
O878       Ni883   1.956       .  S
C880       C1074   1.470       .  S
O885       Ni891   1.943       .  S
O886       Ni909   1.914       .  S
O887       Ni891   1.910       .  S
O887       Ni909   1.901       .  S
O887        H910   0.966   1_556  S
C888       C1021   1.483       .  S
C888        O905   1.268       .  A
C888        O897   1.280       .  A
O889       Ni908   1.943       .  S
O889        C895   1.274       .  A
O890       Ni908   1.880       .  S
O890        C892   1.264       .  A
Ni891       O894   1.930       .  S
Ni891       O896   1.906       .  S
C892       C1013   1.467       .  S
C892        O902   1.281       .  A
O893       Ni909   1.917       .  S
O893        C899   1.281       .  A
O894        C899   1.279       .  A
C895       C1086   1.476       .  S
O896        C898   1.270       .  A
O897       Ni908   1.949       .  S
C898       C1017   1.486       .  S
C898        O904   1.269       .  A
C899       C1009   1.472       .  S
H900        O901   0.966       .  S
O901       Ni903   1.913       .  S
O901       Ni908   1.910       .  S
O902       Ni903   1.952       .  S
Ni903       O907   1.911       .  S
Ni903       O905   1.902       .  S
O904       Ni909   1.932       .  S
C906       C1070   1.480       .  S
C906        O907   1.268       .  A
O911       Ni917   1.941       .  S
O911        C932   1.275       .  A
O912       Ni935   1.907       .  S
O912        C921   1.267       .  A
O913       Ni917   1.904       .  S
O913       Ni935   1.898       .  S
O913        H936   0.966       .  S
C914        C997   1.474       .  S
C914        O931   1.271       .  A
C914        O923   1.281       .  A
O915       Ni934   1.945       .  S
O916       Ni934   1.882       .  S
O916        C918   1.263       .  A
Ni917       O920   1.933       .  S
Ni917       O922   1.910       .  S
C918       C1006   1.480       .  S
C918        O928   1.284       .  A
O919       Ni935   1.915       .  S
O919        C925   1.279       .  A
O920        C925   1.278       .  A
C921       C1066   1.479       .  S
O922        C924   1.272       .  A
O923       Ni934   1.939       .  S
C924        C994   1.487       .  S
C924        O930   1.269       .  A
C925       C1002   1.473       .  S
H926        O927   0.966   1_554  S
O927       Ni929   1.907       .  S
O927       Ni934   1.903       .  S
O928       Ni929   1.966       .  S
Ni929       O933   1.915       .  S
Ni929       O931   1.903       .  S
O930       Ni935   1.930       .  S
C932       C1081   1.479       .  S
O937        C947   1.274       .  A
O938       Ni945   1.887       .  S
O938        C948   1.277       .  A
O939       Ni945   1.895       .  S
O939        C949   1.277       .  A
O940        C950   1.279       .  A
O941        C950   1.281       .  A
O942       Ni946   1.923       .  S
O942        C949   1.282       .  A
O943       Ni946   1.933       .  S
O943        C948   1.283       .  A
O944        C947   1.285       .  A
Ni945      Ni946   2.393       .  S
C947       C1038   1.463       .  S
C948       C1054   1.472       .  S
C949       C1049   1.462       .  S
C950       C1034   1.469       .  S
O951       Ni959   1.950       .  S
O951        C961   1.288       .  A
O952        C962   1.288       .  A
O953        C963   1.279       .  A
O954       Ni959   1.918       .  S
O954        C964   1.278       .  A
O955       Ni960   1.933       .  S
O955        C964   1.288       .  A
O956        C963   1.286       .  A
O957        C962   1.273       .  A
O958       Ni960   1.884       .  S
O958        C961   1.275       .  A
Ni959      Ni960   2.386       .  S
C961       C1001   1.482       .  S
C962       C1018   1.474       .  S
C963       C1022   1.484       .  S
C964       C1005   1.487       .  S
O965       Ni973   1.919       .  S
O965        C975   1.285       .  A
O966       Ni973   1.920       .  S
O966        C976   1.284       .  A
O967       Ni973   1.883       .  S
O967        C977   1.272       .  A
O968       Ni973   1.880       .  S
O968        C978   1.274       .  A
O969       Ni974   1.949       .  S
O969        C978   1.288       .  A
O970       Ni974   1.956       .  S
O970        C977   1.289       .  A
O971       Ni974   1.914       .  S
O971        C976   1.278       .  A
O972       Ni974   1.915       .  S
O972        C975   1.277       .  A
Ni973      Ni974   2.388       .  S
C975       C1014   1.475       .  S
C976        C998   1.475       .  S
C977        C993   1.474       .  S
C978       C1010   1.480       .  S
O979       Ni987   1.925       .  S
O979        C989   1.279       .  A
O980       Ni987   1.919       .  S
O980        C990   1.280       .  A
O981       Ni987   1.948       .  S
O981        C991   1.288       .  A
O982       Ni987   1.945       .  S
O982        C992   1.287       .  A
O983       Ni988   1.880       .  S
O983        C992   1.274       .  A
O984       Ni988   1.882       .  S
O984        C991   1.273       .  A
O985       Ni988   1.915       .  S
O985        C990   1.282       .  A
O986       Ni988   1.915       .  S
O986        C989   1.284       .  A
Ni987      Ni988   2.389       .  S
C989       C1025   1.484       .  S
C990       C1042   1.475       .  S
C991       C1045   1.469       .  S
C992       C1030   1.476       .  S
C993        C994   1.342       .  D
C993        H995   1.088       .  S
C994        H996   1.086       .  S
C997        C998   1.342       .  D
C997        H999   1.087       .  S
C998       H1000   1.087       .  S
C1001      C1002   1.353       .  D
C1001      H1003   1.086       .  S
C1002      H1004   1.088       .  S
C1005      C1006   1.339       .  D
C1005      H1007   1.086       .  S
C1006      H1008   1.088       .  S
C1009      C1010   1.353       .  D
C1009      H1011   1.088       .  S
C1010      H1012   1.086       .  S
C1013      C1014   1.337       .  D
C1013      H1015   1.089       .  S
C1014      H1016   1.086       .  S
C1017      C1018   1.343       .  D
C1017      H1019   1.086       .  S
C1018      H1020   1.088       .  S
C1021      C1022   1.343       .  D
C1021      H1023   1.087       .  S
C1022      H1024   1.086       .  S
C1025      C1026   1.341       .  D
C1025      H1027   1.086       .  S
C1026      H1028   1.088       .  S
C1029      C1030   1.352       .  D
C1029      H1031   1.088       .  S
C1030      H1032   1.086       .  S
C1033      C1034   1.343       .  D
C1033      H1035   1.088       .  S
C1034      H1036   1.086       .  S
C1037      C1038   1.340       .  D
C1037      H1039   1.086       .  S
C1038      H1040   1.088       .  S
C1041      C1042   1.343       .  D
C1041      H1043   1.087       .  S
C1042      H1044   1.086       .  S
C1045      C1046   1.341       .  D
C1045      H1047   1.087       .  S
C1046      H1048   1.086       .  S
C1049      C1050   1.344       .  D
C1049      H1051   1.087       .  S
C1050      H1052   1.086       .  S
C1053      C1054   1.346       .  D
C1053      H1055   1.088       .  S
C1054      H1056   1.086       .  S
C1057      C1058   1.349       .  D
C1058      H1060   1.086       .  S
C1061      C1062   1.346       .  D
C1062      H1064   1.087       .  S
C1065      C1066   1.348       .  D
C1065      H1067   1.086       .  S
C1069      C1070   1.350       .  D
C1070      H1072   1.086       .  S
C1073      C1074   1.346       .  D
C1073      H1075   1.086       .  S
C1077      C1078   1.348       .  D
C1077      H1079   1.086       .  S
C1081      C1082   1.346       .  D
C1081      H1083   1.087       .  S
C1085      C1086   1.348       .  D
C1085      H1087   1.086       .  S
