geometry optimzed in LAMMPS
_audit_creation_date              2020-11-30 
_audit_creation_method            'lammps2cif' 
_symmetry_space_group_name_H-M    'P1' 
_symmetry_Int_Tables_number       1 
_symmetry_cell_setting            triclinic 
loop_ 
_symmetry_equiv_pos_as_xyz 
  x,y,z 
_cell_length_a                    65.43386571 
_cell_length_b                    65.6937756710147 
_cell_length_c                    36.12256014120334 
_cell_angle_alpha                 89.90875357297541 
_cell_angle_beta                  90.32565262528348 
_cell_angle_gamma                 89.53029602052588 
loop_ 
_atom_site_label 
_atom_site_type_symbol 
_atom_site_fract_x 
_atom_site_fract_y 
_atom_site_fract_z 
_atom_site_charge 
O1          O  0.14168881  0.55776807  0.16117246    -0.57500
C2          C  0.12231975  0.61994565  0.17756407     0.75200
O3          O  0.10150622  0.57960793  0.08054125    -0.58600
C4          C  0.13016892  0.54266625  0.16671140     0.75100
C5          C  0.06943861  0.58231831  0.15459807     0.77500
Cd6        Cd  0.11298209  0.58152138  0.14378357     1.37500
O7          O  0.12087420  0.60394921  0.19684391    -0.57500
O8          O  0.08143586  0.57674486  0.18039711    -0.56300
C9          C  0.11858904  0.58251709  0.06543722     0.77500
O10         O  0.07763439  0.58761974  0.12454463    -0.58600
O11         O  0.12170498  0.61780155  0.14291320    -0.57100
O12         O  0.11126792  0.54581277  0.16207690    -0.57100
O13         O  0.13404957  0.58374632  0.08659993    -0.56200
O14         O  0.12097352  0.66766967  0.29215192    -0.57500
C15         C  0.12247326  0.64014095  0.19442376     0.75200
O16         O  0.08304928  0.69506556  0.20130769    -0.58600
C17         C  0.11239228  0.68301819  0.30659268     0.75100
C18         C  0.14711002  0.70648010  0.20985141     0.77500
Cd19       Cd  0.11454829  0.67861748  0.22822698     1.37500
O20         O  0.12319196  0.64231532  0.22916948    -0.57500
O21         O  0.14999290  0.69053199  0.22889173    -0.56300
C22         C  0.07105385  0.68124762  0.21231295     0.77500
O23         O  0.12908205  0.70933428  0.19775282    -0.58600
O24         O  0.11999967  0.65609131  0.17507892    -0.57100
O25         O  0.10582018  0.69657608  0.28456332    -0.57100
O26         O  0.07927265  0.66665517  0.22979049    -0.56200
O27         O  0.29111172  0.83895170  0.08740208    -0.57500
C28         C  0.32324741  0.83753709  0.18288945     0.75200
O29         O  0.26698516  0.87684826  0.18071018    -0.58600
C30         C  0.27524493  0.84766552  0.07461525     0.75100
C31         C  0.25618784  0.81315752  0.17623814     0.77500
Cd32       Cd  0.28319724  0.84573351  0.15272863     1.37500
O33         O  0.31944665  0.83434722  0.14903599    -0.57500
O34         O  0.27060492  0.81053987  0.15356106    -0.56300
C35         C  0.28026964  0.88909017  0.16847256     0.77500
O36         O  0.25450312  0.83095293  0.18942848    -0.58600
O37         O  0.30837509  0.84307442  0.20286539    -0.57100
O38         O  0.26297246  0.85499094  0.09807768    -0.57100
O39         O  0.29449690  0.88123584  0.14961647    -0.56200
O40         O  0.35927180  0.82990217  0.18003503    -0.57500
C41         C  0.42314233  0.82592375  0.19903566     0.75200
O42         O  0.38994671  0.87397846  0.25795947    -0.58600
C43         C  0.34404136  0.83651313  0.19813088     0.75100
C44         C  0.38235129  0.82522764  0.30264189     0.77500
Cd45       Cd  0.38462262  0.84065705  0.22850434     1.37500
O46         O  0.41183408  0.81441229  0.21798003    -0.57500
O47         O  0.37493973  0.81537500  0.27563849    -0.56300
C48         C  0.38763623  0.88429067  0.22855372     0.77500
O49         O  0.39158064  0.84153969  0.29482605    -0.58600
O50         O  0.41554576  0.84297405  0.19016885    -0.57100
O51         O  0.34765836  0.84352425  0.22991618    -0.57100
O52         O  0.38411827  0.87434871  0.19928559    -0.56200
O53         O  0.84720347  0.55825757  0.20222267    -0.57500
C54         C  0.86837877  0.62238516  0.20505042     0.75200
O55         O  0.90532704  0.57770577  0.14330746    -0.58600
C56         C  0.86015348  0.54403483  0.20681084     0.75100
C57         C  0.85148277  0.58365520  0.10500283     0.77500
Cd58       Cd  0.87245985  0.58232125  0.17472651     1.37500
O59         O  0.86615653  0.60697659  0.22587398    -0.57500
O60         O  0.84359405  0.59094549  0.13404785    -0.56300
C61         C  0.91607606  0.58363280  0.17047785     0.77500
O62         O  0.86895155  0.57539614  0.10839127    -0.58600
O63         O  0.87103720  0.61903064  0.17101182    -0.57100
O64         O  0.87845561  0.54822917  0.19935662    -0.57100
O65         O  0.90663685  0.58814260  0.19984365    -0.56200
O66         O  0.67388835  0.84117988  0.14997148    -0.57500
C67         C  0.70135949  0.85873348  0.07227909     0.75200
O68         O  0.72956889  0.88470340  0.16170211    -0.58600
C69         C  0.67171682  0.84208478  0.18462516     0.75100
C70         C  0.74189841  0.82376044  0.16128739     0.77500
Cd71       Cd  0.70923675  0.85338501  0.14960427     1.37500
O72         O  0.69185814  0.84601289  0.09182868    -0.57500
O73         O  0.73060594  0.82371433  0.13284267    -0.56300
C74         C  0.71442482  0.89572928  0.17071807     0.77500
O75         O  0.73751868  0.83693597  0.18555060    -0.58600
O76         O  0.71575789  0.86824048  0.08798441    -0.57100
O77         O  0.68749810  0.84612051  0.20364007    -0.57100
O78         O  0.69733244  0.88696874  0.17074477    -0.56200
O79         O  0.85106833  0.68244591  0.29719586    -0.57500
C80         C  0.86900014  0.64326638  0.21909567     0.75200
O81         O  0.86611985  0.71993620  0.22500596    -0.58600
C82         C  0.86313925  0.69072941  0.32003041     0.75100
C83         C  0.91793326  0.68824149  0.23186802     0.77500
Cd84       Cd  0.87439230  0.68456173  0.24404575     1.37500
O85         O  0.86939246  0.64731471  0.25329090    -0.57500
O86         O  0.91057479  0.68304533  0.26271642    -0.56300
C87         C  0.84894142  0.71597328  0.21063219     0.77500
O88         O  0.90511190  0.69203394  0.20632130    -0.58600
O89         O  0.87023278  0.65816680  0.19707608    -0.57100
O90         O  0.88041835  0.69587744  0.30777789    -0.57100
O91         O  0.84401812  0.69739570  0.21038504    -0.56200
O92         O  0.58615095  0.82332438  0.20792374    -0.57500
C93         C  0.65145242  0.84093144  0.20139161     0.75200
O94         O  0.60419453  0.88277225  0.25496447    -0.58600
C95         C  0.57287781  0.83677773  0.19971797     0.75100
C96         C  0.60939926  0.83455428  0.30674385     0.77500
Cd97       Cd  0.61161219  0.84849884  0.23166862     1.37500
O98         O  0.63549256  0.83821566  0.18209902    -0.57500
O99         O  0.60616946  0.82245908  0.28010990    -0.56300
C100        C  0.60876996  0.89193363  0.22531368     0.77500
O101        O  0.61385279  0.85267828  0.29837385    -0.58600
O102        O  0.64891875  0.84472234  0.23528838    -0.57100
O103        O  0.57831005  0.85499505  0.20430401    -0.57100
O104        O  0.61523511  0.88098768  0.19899698    -0.56200
O105        O  0.31592994  0.09144266  0.14801343    -0.57500
C106        C  0.27021591  0.09325044  0.07344785     0.75200
O107        O  0.28027946  0.05045321  0.12862022    -0.58600
C108        C  0.31853439  0.08975730  0.18262646     0.75100
C109        C  0.25011570  0.11677053  0.17755561     0.77500
Cd110      Cd  0.27824657  0.08591520  0.15018059     1.37500
O111        O  0.28751992  0.09718424  0.08759499    -0.57500
O112        O  0.26712601  0.12099127  0.16312559    -0.56300
C113        C  0.27380849  0.04225131  0.15790692     0.77500
O114        O  0.24625995  0.09798927  0.18105331    -0.58600
O115        O  0.25706445  0.08550124  0.09466020    -0.57100
O116        O  0.30261112  0.08779596  0.20195555    -0.57100
O117        O  0.26878491  0.05426896  0.18378101    -0.56200
O118        O  0.11371619  0.29876861  0.22779525    -0.57500
C119        C  0.11938794  0.26402765  0.30914587     0.75200
O120        O  0.08605563  0.26040543  0.18911580    -0.58600
C121        C  0.12337097  0.30117707  0.19794314     0.75100
C122        C  0.14801091  0.23122984  0.21255854     0.77500
Cd123      Cd  0.11703562  0.26158189  0.23013055     1.37500
O124        O  0.12382881  0.27913467  0.28899131    -0.57500
O125        O  0.15082069  0.24513084  0.23612381    -0.56300
C126        C  0.07436850  0.25286018  0.21320232     0.77500
O127        O  0.13105796  0.23172076  0.19546289    -0.58600
O128        O  0.11420929  0.24788469  0.29263867    -0.57100
O129        O  0.13134853  0.28540886  0.18375197    -0.57100
O130        O  0.08258474  0.24859931  0.24397951    -0.56200
O131        O  0.14195627  0.38045305  0.16644781    -0.57500
C132        C  0.12358932  0.32097990  0.17922716     0.75200
O133        O  0.08138451  0.35386149  0.11456126    -0.58600
C134        C  0.13613691  0.39609385  0.14856484     0.75100
C135        C  0.12461010  0.34817739  0.05988820     0.77500
Cd136      Cd  0.11654526  0.35727737  0.13596316     1.37500
O137        O  0.11362994  0.33598731  0.19176762    -0.57500
O138        O  0.13884133  0.35432053  0.08094729    -0.56300
C139        C  0.07293041  0.36337989  0.14073811     0.77500
O140        O  0.10729001  0.34582285  0.07448654    -0.58600
O141        O  0.13229940  0.32348406  0.14844984    -0.57100
O142        O  0.12160997  0.39359359  0.12592435    -0.57100
O143        O  0.08473876  0.37025654  0.16558531    -0.56200
O144        O  0.40138343  0.10200613  0.19566178    -0.57500
C145        C  0.33892509  0.08870459  0.19978944     0.75200
O146        O  0.38637367  0.04718376  0.26038723    -0.58600
C147        C  0.41705852  0.09821085  0.21535472     0.75100
C148        C  0.36960421  0.09823359  0.30691394     0.77500
Cd149      Cd  0.37795842  0.08128906  0.23541671     1.37500
O150        O  0.35530053  0.08978932  0.18131209    -0.57500
O151        O  0.37546703  0.10956099  0.28065571    -0.56300
C152        C  0.38222384  0.03749920  0.23115135     0.77500
O153        O  0.36811263  0.07943307  0.29999730    -0.58600
O154        O  0.34083663  0.08546503  0.23408045    -0.57100
O155        O  0.41446801  0.08667859  0.24288557    -0.57100
O156        O  0.37715945  0.04807056  0.20325409    -0.56200
O157        O  0.57956728  0.11124677  0.20518069    -0.57500
C158        C  0.64436985  0.09622057  0.20389819     0.75200
O159        O  0.60290404  0.08214764  0.30133889    -0.58600
C160        C  0.56521679  0.09838278  0.20554476     0.75100
C161        C  0.60774720  0.04434597  0.22712494     0.77500
Cd162      Cd  0.60504382  0.08755601  0.23521500     1.37500
O163        O  0.62818298  0.09776552  0.18471549    -0.57500
O164        O  0.60661792  0.05593657  0.19915092    -0.56300
C165        C  0.60261713  0.10064271  0.31082641     0.77500
O166        O  0.60722769  0.05282862  0.25850677    -0.58600
O167        O  0.64221719  0.09282498  0.23804682    -0.57100
O168        O  0.56953009  0.08117231  0.21919461    -0.57100
O169        O  0.60354763  0.11363113  0.28488057    -0.56200
O170        O  0.69339734  0.11129137  0.09697487    -0.57500
C171        C  0.66464578  0.09663023  0.18695599     0.75200
O172        O  0.71687053  0.06165917  0.18672877    -0.58600
C173        C  0.70170522  0.09945562  0.07384925     0.75100
C174        C  0.73596935  0.12081223  0.17015160     0.77500
Cd175      Cd  0.70386778  0.09205691  0.15190352     1.37500
O176        O  0.66671014  0.09801513  0.15232017    -0.57500
O177        O  0.71724776  0.12554657  0.17222643    -0.56300
C178        C  0.71015975  0.04868053  0.16382659     0.77500
O179        O  0.73977547  0.10238768  0.16255906    -0.58600
O180        O  0.68082261  0.09417482  0.20588867    -0.57100
O181        O  0.71104133  0.08407579  0.08685857    -0.57100
O182        O  0.70117524  0.05586947  0.13554374    -0.56200
O183        O  0.86375548  0.27351607  0.28138092    -0.57500
C184        C  0.87105549  0.29626400  0.19389316     0.75200
O185        O  0.90844689  0.24784187  0.19119385    -0.58600
C186        C  0.86745963  0.25905893  0.30360983     0.75100
C187        C  0.84661428  0.22603551  0.20448571     0.77500
Cd188      Cd  0.87644338  0.25655031  0.22646994     1.37500
O189        O  0.86923417  0.29341994  0.22831960    -0.57500
O190        O  0.84369176  0.24480773  0.19845847    -0.56300
C191        C  0.92057636  0.25269485  0.21712909     0.77500
O192        O  0.86376991  0.22129782  0.21848691    -0.58600
O193        O  0.87405575  0.28060818  0.17410322    -0.57100
O194        O  0.87503017  0.24293806  0.29004784    -0.57100
O195        O  0.91221138  0.25764785  0.24720976    -0.56200
O196        O  0.85712454  0.38075438  0.18874267    -0.57500
C197        C  0.87098752  0.31680608  0.17792625     0.75200
O198        O  0.87162841  0.35354608  0.07968847    -0.58600
C199        C  0.86467138  0.39656323  0.17412616     0.75100
C200        C  0.91958910  0.35885101  0.14754578     0.77500
Cd201      Cd  0.87573359  0.35671709  0.14646369     1.37500
O202        O  0.86788300  0.33261125  0.19734646    -0.57500
O203        O  0.90956976  0.35389446  0.17596367    -0.56300
C204        C  0.85228749  0.35403031  0.07922025     0.77500
O205        O  0.90937434  0.36289488  0.11855075    -0.58600
O206        O  0.87514151  0.31955063  0.14418363    -0.57100
O207        O  0.87703772  0.39357409  0.14794205    -0.57100
O208        O  0.84355651  0.35583680  0.11026344    -0.56200
O209        O  0.09540261  0.26820109  0.60528385    -0.57500
C210        C  0.07633174  0.30398662  0.67947124     0.75200
O211        O  0.03924012  0.26180816  0.69355874    -0.58600
C212        C  0.08368906  0.26441043  0.57825326     0.75100
C213        C  0.09427767  0.22830844  0.68006709     0.77500
Cd214      Cd  0.07017270  0.26289989  0.65378379     1.37500
O215        O  0.07416158  0.30016266  0.64541445    -0.57500
O216        O  0.09857066  0.24640107  0.68886803    -0.56300
C217        C  0.02653279  0.26028705  0.66720343     0.77500
O218        O  0.07803565  0.22610800  0.66138090    -0.58600
O219        O  0.07662032  0.28888097  0.70127361    -0.57100
O220        O  0.06558409  0.25939085  0.58629248    -0.57100
O221        O  0.03411811  0.25861419  0.63519968    -0.56200
O222        O  0.24659515  0.11204663  0.78004753    -0.57500
C223        C  0.27792404  0.10479886  0.69217767     0.75200
O224        O  0.22460512  0.06461395  0.68683978    -0.58600
C225        C  0.24059448  0.09792744  0.80112774     0.75100
C226        C  0.20362390  0.11980760  0.70564927     0.77500
Cd227      Cd  0.23876060  0.09408172  0.72227134     1.37500
O228        O  0.27466561  0.10511218  0.72660943    -0.57500
O229        O  0.20271900  0.10494893  0.72778392    -0.56300
C230        C  0.23684945  0.05155591  0.70051120     0.77500
O231        O  0.22068116  0.12231172  0.68992463    -0.58600
O232        O  0.26270118  0.10129086  0.67140006    -0.57100
O233        O  0.23349300  0.08223517  0.78552614    -0.57100
O234        O  0.24944779  0.05817712  0.72408410    -0.56200
O235        O  0.36517505  0.12519864  0.66149605    -0.57500
C236        C  0.29866264  0.10623202  0.67727619     0.75200
O237        O  0.35622270  0.09585178  0.58937884    -0.58600
C238        C  0.37500713  0.11464451  0.68501595     0.75100
C239        C  0.33817314  0.05540530  0.64416582     0.77500
Cd240      Cd  0.33907006  0.09915083  0.64825796     1.37500
O241        O  0.31424314  0.10737861  0.69806327    -0.57500
O242        O  0.34784081  0.06448415  0.66957172    -0.56300
C243        C  0.34938945  0.11217250  0.57517916     0.77500
O244        O  0.32957353  0.06657072  0.62010672    -0.58600
O245        O  0.30192364  0.10442859  0.64306389    -0.57100
O246        O  0.36670920  0.09811780  0.69459749    -0.57100
O247        O  0.33737817  0.12277319  0.59493202    -0.56200
O248        O  0.10021289  0.38947441  0.69984103    -0.57500
C249        C  0.07719433  0.32489114  0.69353383     0.75200
O250        O  0.07777769  0.37259049  0.79020397    -0.58600
C251        C  0.08743619  0.40191070  0.68601853     0.75100
C252        C  0.03016858  0.36824565  0.73540205     0.77500
Cd253      Cd  0.07390654  0.36534624  0.72391380     1.37500
O254        O  0.07817074  0.34030494  0.67244504    -0.57500
O255        O  0.03790567  0.35844798  0.70873518    -0.56300
C256        C  0.09498535  0.36390248  0.79423690     0.77500
O257        O  0.04271555  0.37678220  0.75703369    -0.58600
O258        O  0.07593934  0.32831805  0.72780366    -0.57100
O259        O  0.06904370  0.39627300  0.68615668    -0.57100
O260        O  0.10280734  0.35630677  0.76535156    -0.56200
O261        O  0.08969283  0.67839028  0.59742661    -0.57500
C262        C  0.07707288  0.65029864  0.68008522     0.75200
O263        O  0.08983749  0.72293984  0.68274664    -0.58600
C264        C  0.08303745  0.69265130  0.57700256     0.75100
C265        C  0.03262821  0.70072105  0.66874661     0.77500
Cd266      Cd  0.07520107  0.69149091  0.65401672     1.37500
O267        O  0.07304029  0.65436341  0.64660155    -0.57500
O268        O  0.04044485  0.70330749  0.63716350    -0.56300
C269        C  0.10833342  0.71816750  0.67680026     0.77500
O270        O  0.04466809  0.69473331  0.69415322    -0.58600
O271        O  0.08078835  0.66518666  0.70124370    -0.57100
O272        O  0.07148680  0.70583469  0.59182747    -0.57100
O273        O  0.11111899  0.70082669  0.66283781    -0.56200
O274        O  0.26572376  0.85121560  0.77717283    -0.57500
C275        C  0.28589114  0.85377765  0.68732836     0.75200
O276        O  0.21324518  0.84424066  0.69664062    -0.58600
C277        C  0.25169288  0.85576898  0.79965071     0.75100
C278        C  0.23457572  0.89985054  0.70143414     0.77500
Cd279      Cd  0.24602815  0.85819169  0.72071072     1.37500
O280        O  0.28335856  0.86165614  0.71885783    -0.57500
O281        O  0.23310990  0.89286984  0.73390867    -0.56300
C282        C  0.21724581  0.82579315  0.70386746     0.77500
O283        O  0.24077407  0.88737952  0.67721921    -0.58600
O284        O  0.26999984  0.84743684  0.67092682    -0.57100
O285        O  0.23465487  0.86096258  0.78560887    -0.57100
O286        O  0.23463590  0.82232998  0.71803890    -0.56200
O287        O  0.09069655  0.56452171  0.68960680    -0.57500
C288        C  0.07631535  0.62947111  0.69429687     0.75200
O289        O  0.03619840  0.58965040  0.75691019    -0.58600
C290        C  0.07799108  0.55019553  0.69336715     0.75100
C291        C  0.08851958  0.58685812  0.79618847     0.77500
Cd292      Cd  0.06924377  0.58975884  0.72490744     1.37500
O293        O  0.07372835  0.61427925  0.67332367    -0.57500
O294        O  0.09925763  0.58635634  0.76709353    -0.56300
C295        C  0.02553981  0.59043973  0.72757216     0.77500
O296        O  0.06941404  0.58876303  0.79167634    -0.58600
O297        O  0.07723270  0.62598463  0.72861103    -0.57100
O298        O  0.06164363  0.55475817  0.70987681    -0.57100
O299        O  0.03521982  0.59181315  0.69748092    -0.56200
O300        O  0.36920072  0.83959115  0.67450518    -0.57500
C301        C  0.30615676  0.85322231  0.67005525     0.75200
O302        O  0.33621787  0.89186990  0.60401921    -0.58600
C303        C  0.38485848  0.84444458  0.65598123     0.75100
C304        C  0.34393392  0.83925400  0.56172600     0.77500
Cd305      Cd  0.34462515  0.85875521  0.63236015     1.37500
O306        O  0.32182137  0.85979046  0.68671119    -0.57500
O307        O  0.34493326  0.82889746  0.59133458    -0.56300
C308        C  0.34408866  0.90254848  0.62935029     0.77500
O309        O  0.34231505  0.85838311  0.56507405    -0.58600
O310        O  0.30868879  0.84719074  0.63721093    -0.57100
O311        O  0.38174256  0.85602304  0.62853984    -0.57100
O312        O  0.35330672  0.89298789  0.65496122    -0.56200
O313        O  0.54895258  0.83660183  0.67438420    -0.57500
C314        C  0.61334128  0.85840545  0.67504727     0.75200
O315        O  0.57045026  0.86158822  0.57536064    -0.58600
C316        C  0.53373703  0.84855819  0.67029153     0.75100
C317        C  0.57229765  0.90343758  0.65045712     0.77500
Cd318      Cd  0.57323475  0.86034073  0.64252228     1.37500
O319        O  0.59793033  0.85333893  0.69402415    -0.57500
O320        O  0.57036276  0.89158201  0.67778057    -0.56300
C321        C  0.57526469  0.84317325  0.56961694     0.77500
O322        O  0.57362095  0.89519199  0.61883975    -0.58600
O323        O  0.61030689  0.86186841  0.64111146    -0.57100
O324        O  0.53709357  0.86509761  0.65366272    -0.57100
O325        O  0.57868151  0.83226406  0.59801632    -0.56200
O326        O  0.82452513  0.68670226  0.61055345    -0.57500
C327        C  0.82393080  0.66417958  0.71000472     0.75200
O328        O  0.86799480  0.71655766  0.68615215    -0.58600
C329        C  0.83442676  0.69956064  0.59187420     0.75100
C330        C  0.80747822  0.73373805  0.68988366     0.77500
Cd331      Cd  0.83463990  0.70056623  0.67070001     1.37500
O332        O  0.81955115  0.66642890  0.67613606    -0.57500
O333        O  0.80308077  0.72048345  0.66589242    -0.56300
C334        C  0.87879778  0.70133912  0.67671962     0.77500
O335        O  0.82454362  0.73155546  0.70618699    -0.58600
O336        O  0.83135731  0.67942047  0.72657688    -0.57100
O337        O  0.84319322  0.71358981  0.60969785    -0.57100
O338        O  0.86904976  0.68573224  0.66689251    -0.56200
O339        O  0.66794075  0.85714972  0.78172431    -0.57500
C340        C  0.63349945  0.86199955  0.69151592     0.75200
O341        O  0.68897427  0.90455938  0.69316597    -0.58600
C342        C  0.67004909  0.87268393  0.80198569     0.75100
C343        C  0.70648305  0.84898057  0.71099956     0.77500
Cd344      Cd  0.67154712  0.87517081  0.72337422     1.37500
O345        O  0.63652013  0.86119614  0.72607512    -0.57500
O346        O  0.69052676  0.84761333  0.69115030    -0.56300
C347        C  0.67512209  0.91736072  0.70127854     0.77500
O348        O  0.70680842  0.86347330  0.73390880    -0.58600
O349        O  0.64835352  0.86765590  0.67179420    -0.57100
O350        O  0.67192957  0.88959979  0.78565447    -0.57100
O351        O  0.66008907  0.91054688  0.71906688    -0.56200
O352        O  0.80137985  0.58052134  0.75324752    -0.57500
C353        C  0.82280881  0.64427005  0.72809757     0.75200
O354        O  0.84240813  0.60997318  0.82245585    -0.58600
C355        C  0.81133305  0.56758383  0.73446086     0.75100
C356        C  0.87276426  0.59653445  0.74370984     0.77500
Cd357      Cd  0.83053796  0.60455168  0.75908858     1.37500
O358        O  0.81732750  0.62842931  0.71091825    -0.57500
O359        O  0.86145818  0.60618087  0.72108682    -0.56300
C360        C  0.82570684  0.60587539  0.83820764     0.77500
O361        O  0.86446016  0.59059636  0.77332453    -0.58600
O362        O  0.82937498  0.64180571  0.76067602    -0.57100
O363        O  0.82901489  0.57271110  0.72443319    -0.57100
O364        O  0.81095769  0.60149304  0.81692566    -0.56200
O365        O  0.54014596  0.11995947  0.68502477    -0.57500
C366        C  0.60459273  0.11165820  0.68463586     0.75200
O367        O  0.57724310  0.06497152  0.63215928    -0.58600
C368        C  0.52527921  0.10972567  0.67252245     0.75100
C369        C  0.56895232  0.11089464  0.57660809     0.77500
Cd370      Cd  0.56674888  0.09893094  0.65228398     1.37500
O371        O  0.58952777  0.10757201  0.70516126    -0.57500
O372        O  0.57017092  0.12420798  0.60190277    -0.56300
C373        C  0.57303622  0.05586118  0.66191582     0.77500
O374        O  0.56553458  0.09278700  0.58666103    -0.58600
O375        O  0.60135397  0.11195273  0.65021384    -0.57100
O376        O  0.52989027  0.09523626  0.65114214    -0.57100
O377        O  0.56572338  0.06669646  0.68764936    -0.56200
O378        O  0.82674615  0.29319950  0.58472827    -0.57500
C379        C  0.82425443  0.32146677  0.68581844     0.75200
O380        O  0.81623933  0.25109692  0.67560981    -0.58600
C381        C  0.83344875  0.27651497  0.57188449     0.75100
C382        C  0.87362275  0.27675032  0.66918319     0.77500
Cd383      Cd  0.83086161  0.28270622  0.65015139     1.37500
O384        O  0.82308253  0.32000460  0.65092465    -0.57500
O385        O  0.86733863  0.29023015  0.64677940    -0.56300
C386        C  0.79782149  0.25491680  0.66691183     0.77500
O387        O  0.86000283  0.26566630  0.68354349    -0.58600
O388        O  0.82688439  0.30505876  0.70371395    -0.57100
O389        O  0.83838692  0.26298143  0.59521042    -0.57100
O390        O  0.79458210  0.27224232  0.65262566    -0.56200
O391        O  0.65847823  0.12021697  0.78903665    -0.57500
C392        C  0.62532460  0.11397495  0.69920305     0.75200
O393        O  0.69680411  0.12637416  0.69409746    -0.58600
C394        C  0.67561181  0.11446033  0.80205256     0.75100
C395        C  0.67494091  0.06900211  0.71023841     0.77500
Cd396      Cd  0.66676777  0.11148874  0.72516073     1.37500
O397        O  0.62930376  0.11245676  0.73337506    -0.57500
O398        O  0.66900407  0.07544245  0.74130640    -0.56300
C399        C  0.69239547  0.14471152  0.70158281     0.77500
O400        O  0.67719782  0.08230526  0.68516183    -0.58600
O401        O  0.64034907  0.11589738  0.67761548    -0.57100
O402        O  0.68843795  0.10737525  0.77929073    -0.57100
O403        O  0.67560943  0.14764635  0.71802194    -0.56200
O404        O  0.80498307  0.40483340  0.73148706    -0.57500
C405        C  0.82431046  0.34115829  0.70504347     0.75200
O406        O  0.86580045  0.37040762  0.77246930    -0.58600
C407        C  0.81768878  0.41848625  0.72292362     0.75100
C408        C  0.81833396  0.37650843  0.82078760     0.77500
Cd409      Cd  0.83191119  0.37841268  0.74540628     1.37500
O410        O  0.82338186  0.35811586  0.68832341    -0.57500
O411        O  0.80796688  0.36875236  0.79479051    -0.56300
C412        C  0.87602558  0.37599032  0.74466745     0.77500
O413        O  0.83410262  0.38625009  0.81138998    -0.58600
O414        O  0.82683060  0.34182283  0.73962267    -0.57100
O415        O  0.83619378  0.41288614  0.72240898    -0.57100
O416        O  0.86581703  0.38330568  0.71790250    -0.56200
C417        C  0.74615355  0.22765908  0.66863493    -0.11000
C418        C  0.75174669  0.20890280  0.68435626     0.15500
C419        C  0.77233987  0.20545123  0.69454394     0.02400
C420        C  0.78679018  0.22071825  0.68863974    -0.15400
C421        C  0.78135325  0.23961142  0.67272287    -0.10200
C422        C  0.76061101  0.24287647  0.66229719     0.09100
C423        C  0.73594256  0.19295174  0.68797542     0.10200
S424        S  0.78124955  0.18190788  0.71506006    -0.24500
H425        H  0.80251099  0.21769505  0.69662560     0.20400
S426        S  0.75144287  0.26568030  0.63981383    -0.30200
H427        H  0.73040005  0.23025876  0.66031335     0.10700
C428        C  0.72010240  0.19461613  0.71408181     0.04000
C429        C  0.70568967  0.17898951  0.71693343    -0.12500
C430        C  0.70653218  0.16177395  0.69382780    -0.08200
C431        C  0.72182071  0.16077040  0.66630317     0.07400
C432        C  0.73652276  0.17611436  0.66417595    -0.13300
S433        S  0.71873486  0.21621167  0.74489083    -0.30200
H434        H  0.69409283  0.17990531  0.73813561     0.11700
S435        S  0.72291681  0.14089438  0.63205292    -0.27300
H436        H  0.74834464  0.17511920  0.64334950     0.08900
H437        H  0.76513340  0.26372098  0.61008214     0.27300
H438        H  0.69971638  0.21149874  0.76057490     0.22100
H439        H  0.70157615  0.13975608  0.62751146     0.27400
H440        H  0.76276811  0.17669144  0.73212639     0.16300
C441        C  0.79305740  0.51356406  0.74785829    -0.11000
C442        C  0.79943958  0.50477511  0.71447813     0.15500
C443        C  0.80580129  0.51751536  0.68531447     0.02400
C444        C  0.80820662  0.53836230  0.69171838    -0.15400
C445        C  0.80373335  0.54693909  0.72635213    -0.10200
C446        C  0.79523277  0.53447585  0.75420036     0.09100
C447        C  0.80377800  0.48260531  0.71394201     0.10200
S448        S  0.81279025  0.50770969  0.64048593    -0.24500
H449        H  0.81451077  0.54780013  0.67004145     0.20400
S450        S  0.78933285  0.54373618  0.79988491    -0.30200
H451        H  0.78816882  0.50382995  0.77032260     0.10700
C452        C  0.82405553  0.47545430  0.71721509     0.04000
C453        C  0.82795687  0.45450957  0.71798392    -0.12500
C454        C  0.81204497  0.44023699  0.71635479    -0.08200
C455        C  0.79167878  0.44751981  0.71229899     0.07400
C456        C  0.78777079  0.46859263  0.71160195    -0.13300
S457        S  0.84500815  0.49299501  0.72311090    -0.30200
H458        H  0.84356656  0.44929898  0.72161280     0.11700
S459        S  0.77005970  0.43093798  0.70759069    -0.27300
H460        H  0.77218426  0.47411597  0.70902490     0.08900
H461        H  0.80812068  0.55366640  0.80486439     0.27300
H462        H  0.86092118  0.47859873  0.71983379     0.22100
H463        H  0.77993914  0.41767590  0.68277305     0.27400
H464        H  0.80081770  0.49006672  0.64250890     0.16300
C465        C  0.66075811  0.97271530  0.68505099    -0.11000
C466        C  0.67985983  0.98209549  0.68777317     0.15500
C467        C  0.69766769  0.96983022  0.69038573     0.02400
C468        C  0.69584078  0.94861161  0.69281907    -0.15400
C469        C  0.67659360  0.93928489  0.69205633    -0.10200
C470        C  0.65897691  0.95154726  0.68624685     0.09100
C471        C  0.68036768  0.00456475  0.69155985     0.10200
S472        S  0.72304296  0.98035076  0.69169937    -0.24500
H473        H  0.70950643  0.93940189  0.69669497     0.20400
S474        S  0.63379127  0.94121048  0.67967797    -0.30200
H475        H  0.64704719  0.98200885  0.68255104     0.10700
C476        C  0.67363047  0.01767608  0.66295150     0.04000
C477        C  0.67282123  0.03877284  0.66920466    -0.12500
C478        C  0.67843313  0.04701701  0.70362415    -0.08200
C479        C  0.68578575  0.03381529  0.73180643     0.07400
C480        C  0.68647868  0.01282655  0.72557004    -0.13300
S481        S  0.66599269  0.00754065  0.61857237    -0.30200
H482        H  0.66713042  0.04882592  0.64764942     0.11700
S483        S  0.69479982  0.04271455  0.77615616    -0.27300
H484        H  0.69166102  0.00278137  0.74759446     0.08900
H485        H  0.64048323  0.92372658  0.66066752     0.27300
H486        H  0.66136477  0.02631893  0.60160925     0.22100
H487        H  0.70402077  0.06035750  0.76204955     0.27400
H488        H  0.71822597  0.99830312  0.67216324     0.16300
C489        C  0.75105593  0.81359232  0.73505278    -0.11000
C490        C  0.75458223  0.80418737  0.70088887     0.15500
C491        C  0.74296542  0.81035330  0.66968094     0.02400
C492        C  0.72747883  0.82500788  0.67371491    -0.15400
C493        C  0.72358360  0.83414444  0.70810293    -0.10200
C494        C  0.73570756  0.82835325  0.73910740     0.09100
C495        C  0.76851844  0.78630561  0.69979010     0.10200
S496        S  0.74712427  0.80005774  0.62404494    -0.24500
H497        H  0.71845622  0.82939138  0.64969640     0.20400
S498        S  0.73141950  0.83786351  0.78523347    -0.30200
H499        H  0.75969114  0.80865999  0.75920126     0.10700
C500        C  0.78976136  0.78798976  0.70566118     0.04000
C501        C  0.80215351  0.77043038  0.70409527    -0.12500
C502        C  0.79365835  0.75121386  0.69709669    -0.08200
C503        C  0.77220941  0.74953631  0.69348444     0.07400
C504        C  0.75998172  0.76705352  0.69428420    -0.13300
S505        S  0.80120744  0.81256782  0.71314414    -0.30200
H506        H  0.81857506  0.77179446  0.70678759     0.11700
S507        S  0.75939879  0.72545643  0.68909364    -0.27300
H508        H  0.74356919  0.76565725  0.69109506     0.08900
H509        H  0.71008239  0.83554616  0.78344996     0.27300
H510        H  0.82076295  0.80521776  0.72291911     0.22100
H511        H  0.77311288  0.71473262  0.71226152     0.27400
H512        H  0.76786950  0.79506243  0.62937558     0.16300
C513        C  0.58937782  0.00132158  0.64423964    -0.11000
C514        C  0.57435121  0.99081446  0.66386207     0.15500
C515        C  0.56058734  0.00172892  0.68647036     0.02400
C516        C  0.56140257  0.02297434  0.68723641    -0.15400
C517        C  0.57552469  0.03360652  0.66558329    -0.10200
C518        C  0.59029579  0.02253970  0.64522429     0.09100
C519        C  0.57359169  0.96848761  0.66034216     0.10200
S520        S  0.54120475  0.98957739  0.71391754    -0.24500
H521        H  0.55018976  0.03127795  0.70336554     0.20400
S522        S  0.61101737  0.03445300  0.62090284    -0.30200
H523        H  0.60046589  0.99288578  0.62802328     0.10700
C524        C  0.56768117  0.95923084  0.62684943     0.04000
C525        C  0.56751679  0.93798017  0.62443791    -0.12500
C526        C  0.57294990  0.92575765  0.65493566    -0.08200
C527        C  0.57884620  0.93520640  0.68855987     0.07400
C528        C  0.57901289  0.95641583  0.69084021    -0.13300
S529        S  0.55969003  0.97446124  0.58755593    -0.30200
H530        H  0.56286392  0.93084926  0.59877312     0.11700
S531        S  0.58717917  0.92133358  0.72909722    -0.27300
H532        H  0.58372401  0.96362092  0.71645242     0.08900
H533        H  0.61366093  0.05013214  0.64696016     0.27300
H534        H  0.55499089  0.95820005  0.56377687     0.22100
H535        H  0.60042168  0.90834220  0.70940749     0.27400
H536        H  0.53785502  0.97309930  0.68993416     0.16300
C537        C  0.47803621  0.85457927  0.69626768    -0.11000
C538        C  0.47049625  0.83522709  0.68762081     0.15500
C539        C  0.48452019  0.81944388  0.67909122     0.02400
C540        C  0.50546251  0.82372625  0.67664001    -0.15400
C541        C  0.51276577  0.84351239  0.68238390    -0.10200
C542        C  0.49891575  0.85883014  0.69415892     0.09100
C543        C  0.44806166  0.83320909  0.68181088     0.10200
S544        S  0.47650109  0.79384858  0.66911175    -0.24500
H545        H  0.51592054  0.81180878  0.66793946     0.20400
S546        S  0.50678885  0.88430741  0.70580184    -0.30200
H547        H  0.46744140  0.86676508  0.70305166     0.10700
C548        C  0.43387339  0.83608111  0.71068299     0.04000
C549        C  0.41289551  0.83824945  0.70219950    -0.12500
C550        C  0.40591175  0.83746514  0.66535212    -0.08200
C551        C  0.41999142  0.83244546  0.63715083     0.07400
C552        C  0.44082853  0.83077963  0.64551468    -0.13300
S553        S  0.44260268  0.83732659  0.75811286    -0.30200
H554        H  0.40210737  0.84164686  0.72398550     0.11700
S555        S  0.41229442  0.82802963  0.58982600    -0.27300
H556        H  0.45159068  0.82817366  0.62328578     0.08900
H557        H  0.52613949  0.87850375  0.71956801     0.27300
H558        H  0.42320409  0.83979264  0.77415177     0.22100
H559        H  0.39311116  0.81991649  0.59880367     0.27400
H560        H  0.45844757  0.79475789  0.68999466     0.16300
C561        C  0.96987392  0.58357388  0.70018970    -0.11000
C562        C  0.96000950  0.59131837  0.73143743     0.15500
C563        C  0.97165278  0.59825839  0.76179907     0.02400
C564        C  0.99297816  0.59725188  0.76022661    -0.15400
C565        C  0.00298767  0.58990759  0.72856335    -0.10200
C566        C  0.99116229  0.58262975  0.69847257     0.09100
C567        C  0.93752953  0.59178076  0.73164770     0.10200
S568        S  0.96022182  0.60876493  0.80297975    -0.24500
H569        H  0.00181479  0.60282267  0.78352723     0.20400
S570        S  0.00210171  0.57117799  0.65775744    -0.30200
H571        H  0.96086261  0.57800637  0.67709911     0.10700
C572        C  0.92657224  0.60749714  0.71375323     0.04000
C573        C  0.90526042  0.60822225  0.71673078    -0.12500
C574        C  0.89472191  0.59326707  0.73666122    -0.08200
C575        C  0.90571488  0.57655527  0.75174714     0.07400
C576        C  0.92704007  0.57624186  0.74983955    -0.13300
S577        S  0.93983112  0.62707604  0.68853062    -0.30200
H578        H  0.89687233  0.62090837  0.70473501     0.11700
S579        S  0.89344869  0.55487425  0.77239419    -0.27300
H580        H  0.93552966  0.56374371  0.76232970     0.08900
H581        H  0.01662005  0.55951470  0.67759042     0.27300
H582        H  0.92231061  0.63688969  0.67430368     0.22100
H583        H  0.87647526  0.55524363  0.74826477     0.27400
H584        H  0.94307868  0.61752162  0.78535831     0.16300
C585        C  0.97736018  0.71876491  0.66028882    -0.11000
C586        C  0.96735465  0.70398909  0.68143769     0.15500
C587        C  0.97907623  0.68912722  0.70051097     0.02400
C588        C  0.00039805  0.68907360  0.69723351    -0.15400
C589        C  0.01042119  0.70344111  0.67510847    -0.10200
C590        C  0.99869427  0.71873207  0.65709234     0.09100
C591        C  0.94471463  0.70354579  0.68070536     0.10200
S592        S  0.96782594  0.66932736  0.72827156    -0.24500
H593        H  0.00918944  0.67719523  0.71100436     0.20400
S594        S  0.01001254  0.73866963  0.62990532    -0.30200
H595        H  0.96842944  0.73024117  0.64569967     0.10700
C596        C  0.93280781  0.71760391  0.70080067     0.04000
C597        C  0.91138382  0.71658655  0.69889794    -0.12500
C598        C  0.90153466  0.70182664  0.67713176    -0.08200
C599        C  0.91370969  0.68799930  0.65641314     0.07400
C600        C  0.93502911  0.68885786  0.65891276    -0.13300
S601        S  0.94492218  0.73645708  0.72966474    -0.30200
H602        H  0.90226630  0.72723124  0.71475573     0.11700
S603        S  0.90327514  0.66952209  0.62482699    -0.27300
H604        H  0.94421850  0.67821657  0.64308496     0.08900
H605        H  0.02753617  0.74050939  0.65237035     0.27300
H606        H  0.92686290  0.74542518  0.74321022     0.22100
H607        H  0.88972135  0.68347193  0.60783804     0.27400
H608        H  0.94937614  0.67945068  0.73616882     0.16300
C609        C  0.16121171  0.74280803  0.67891596    -0.11000
C610        C  0.15631489  0.76247472  0.69116081     0.15500
C611        C  0.13592013  0.76702999  0.70082024     0.02400
C612        C  0.12082031  0.75219266  0.69673825    -0.15400
C613        C  0.12552984  0.73246537  0.68409130    -0.10200
C614        C  0.14628338  0.72770011  0.67603145     0.09100
C615        C  0.17266409  0.77802982  0.69312056     0.10200
S616        S  0.12818736  0.79154920  0.71847787    -0.24500
H617        H  0.10517725  0.75623066  0.70334668     0.20400
S618        S  0.15501829  0.70282914  0.66189956    -0.30200
H619        H  0.17688605  0.73916295  0.67175914     0.10700
C620        C  0.18873461  0.77652996  0.71914749     0.04000
C621        C  0.20338760  0.79199948  0.72105180    -0.12500
C622        C  0.20228813  0.80916755  0.69775041    -0.08200
C623        C  0.18639020  0.81031562  0.67101138     0.07400
C624        C  0.17179723  0.79483616  0.66912590    -0.13300
S625        S  0.18991173  0.75553013  0.75148408    -0.30200
H626        H  0.21538177  0.79104907  0.74175485     0.11700
S627        S  0.18399800  0.83080926  0.63802187    -0.27300
H628        H  0.15959568  0.79589670  0.64877958     0.08900
H629        H  0.14533676  0.69282732  0.69141014     0.27300
H630        H  0.20800928  0.76135247  0.76964003     0.22100
H631        H  0.20509540  0.83193475  0.63106091     0.27400
H632        H  0.14648669  0.79540135  0.73773712     0.16300
C633        C  0.93128986  0.37274447  0.71194132    -0.11000
C634        C  0.94185913  0.37143221  0.74575277     0.15500
C635        C  0.93067263  0.37132768  0.77904902     0.02400
C636        C  0.90932605  0.37298768  0.77780356    -0.15400
C637        C  0.89865368  0.37415921  0.74393724    -0.10200
C638        C  0.90993075  0.37356812  0.71056646     0.09100
C639        C  0.96450616  0.37008057  0.74508814     0.10200
S640        S  0.94266648  0.36870039  0.82388772    -0.24500
H641        H  0.90098039  0.37321288  0.80363487     0.20400
S642        S  0.89821046  0.37279201  0.66530698    -0.30200
H643        H  0.93979805  0.37259670  0.68627224     0.10700
C644        C  0.97457801  0.35307321  0.72969472     0.04000
C645        C  0.99595438  0.35289514  0.72727719    -0.12500
C646        C  0.00767423  0.36917292  0.74068434    -0.08200
C647        C  0.99749928  0.38590853  0.75730560     0.07400
C648        C  0.97609494  0.38629051  0.75886581    -0.13300
S649        S  0.96022541  0.33132018  0.71401267    -0.30200
H650        H  0.00361785  0.33988365  0.71507930     0.11700
S651        S  0.01081169  0.40773994  0.77488707    -0.27300
H652        H  0.96837932  0.39940392  0.77065067     0.08900
H653        H  0.88317886  0.35865342  0.67538600     0.27300
H654        H  0.97696055  0.31973238  0.70144282     0.22100
H655        H  0.02082605  0.39640814  0.80277791     0.27400
H656        H  0.95891272  0.35622632  0.81203702     0.16300
C657        C  0.10868860  0.45548109  0.68477794    -0.11000
C658        C  0.09417446  0.46516328  0.66198716     0.15500
C659        C  0.08068389  0.45320198  0.64081383     0.02400
C660        C  0.08000552  0.43215767  0.64680353    -0.15400
C661        C  0.09290195  0.42261887  0.67296663    -0.10200
C662        C  0.10824232  0.43437060  0.69047451     0.09100
C663        C  0.08989387  0.48706894  0.66826976     0.10200
S664        S  0.06260090  0.46426364  0.60860067    -0.24500
H665        H  0.06848815  0.42335444  0.63247217     0.20400
S666        S  0.12596348  0.42395516  0.72392738    -0.30200
H667        H  0.11913829  0.46462254  0.70099457     0.10700
C668        C  0.07462562  0.49290288  0.69352413     0.04000
C669        C  0.07075965  0.51355586  0.69979130    -0.12500
C670        C  0.08194720  0.52880482  0.68175079    -0.08200
C671        C  0.09698878  0.52288525  0.65572329     0.07400
C672        C  0.10101452  0.50208997  0.64969851    -0.13300
S673        S  0.06061004  0.47398781  0.71927371    -0.30200
H674        H  0.05935129  0.51779025  0.71999350     0.11700
S675        S  0.11106850  0.54092836  0.62857195    -0.27300
H676        H  0.11262512  0.49757988  0.63003393     0.08900
H677        H  0.11047322  0.41658538  0.74713823     0.27300
H678        H  0.04664268  0.48744931  0.73603578     0.22100
H679        H  0.09407427  0.55370156  0.62184190     0.27400
H680        H  0.07422731  0.48161834  0.60065192     0.16300
C681        C  0.32394418  0.95667555  0.61828837    -0.11000
C682        C  0.34052468  0.96788891  0.63179813     0.15500
C683        C  0.35828460  0.95750534  0.64417642     0.02400
C684        C  0.35896998  0.93623568  0.64322939    -0.15400
C685        C  0.34245813  0.92497979  0.62949095    -0.10200
C686        C  0.32466849  0.93540310  0.61714146     0.09100
C687        C  0.33850986  0.99028502  0.63457375     0.10200
S688        S  0.38059839  0.97049679  0.66133703    -0.24500
H689        H  0.37265900  0.92840989  0.65281515     0.20400
S690        S  0.30191541  0.92249983  0.60196057    -0.30200
H691        H  0.31011710  0.96455689  0.60952919     0.10700
C692        C  0.33685204  0.00268942  0.60281430     0.04000
C693        C  0.33626036  0.02390120  0.60685657    -0.12500
C694        C  0.33719794  0.03298146  0.64201130    -0.08200
C695        C  0.33766379  0.02042153  0.67384329     0.07400
C696        C  0.33851640  0.99928136  0.66974712    -0.13300
S697        S  0.33658913  0.99163942  0.55704610    -0.30200
H698        H  0.33574916  0.03347579  0.58244030     0.11700
S699        S  0.33652346  0.03027710  0.72034792    -0.27300
H700        H  0.33916969  0.98970786  0.69420306     0.08900
H701        H  0.30269519  0.90765555  0.63008320     0.27300
H702        H  0.33206569  0.00972603  0.53765669     0.22100
H703        H  0.32257494  0.04603520  0.71178924     0.27400
H704        H  0.37831192  0.98785266  0.63881402     0.16300
C705        C  0.42795510  0.13799099  0.68748329    -0.11000
C706        C  0.43918233  0.12167980  0.70252973     0.15500
C707        C  0.42868421  0.10529511  0.71868916     0.02400
C708        C  0.40738177  0.10454191  0.71610429    -0.15400
C709        C  0.39608965  0.11980970  0.69753743    -0.10200
C710        C  0.40655149  0.13742105  0.68535255     0.09100
C711        C  0.46128499  0.12005138  0.69435103     0.10200
S712        S  0.44177760  0.08371013  0.73894648    -0.24500
H713        H  0.39979341  0.09106642  0.72628214     0.20400
S714        S  0.39382105  0.15916457  0.66501056    -0.30200
H715        H  0.43598205  0.15073167  0.67542769     0.10700
C716        C  0.46780831  0.11031572  0.66176719     0.04000
C717        C  0.48871792  0.10750853  0.65549194    -0.12500
C718        C  0.50348693  0.11414914  0.68112570    -0.08200
C719        C  0.49683875  0.12413795  0.71372343     0.07400
C720        C  0.47584323  0.12729368  0.71963890    -0.13300
S721        S  0.44940748  0.10115797  0.62827317    -0.30200
H722        H  0.49357527  0.09994314  0.63040666     0.11700
S723        S  0.51409297  0.13200139  0.74986179    -0.27300
H724        H  0.47077513  0.13464241  0.74483301     0.08900
H725        H  0.37709679  0.15845176  0.68929468     0.27300
H726        H  0.46356955  0.09470847  0.60150397     0.22100
H727        H  0.52550079  0.11374888  0.74956368     0.27400
H728        H  0.45814258  0.09489002  0.75356363     0.16300
C729        C  0.25095136  0.99554323  0.69066100    -0.11000
C730        C  0.23190835  0.98699461  0.68228237     0.15500
C731        C  0.21493366  0.00005755  0.67627779     0.02400
C732        C  0.21713306  0.02112761  0.68087635    -0.15400
C733        C  0.23603325  0.02962003  0.69078365    -0.10200
C734        C  0.25331685  0.01659748  0.69401357     0.09100
C735        C  0.23015007  0.96444363  0.68297708     0.10200
S736        S  0.19004362  0.99078746  0.66331366    -0.24500
H737        H  0.20380861  0.03089658  0.67770612     0.20400
S738        S  0.27889578  0.02576538  0.70156038    -0.30200
H739        H  0.26411884  0.98566769  0.69490184     0.10700
C740        C  0.24139299  0.95194503  0.65861454     0.04000
C741        C  0.24153956  0.93074016  0.66379024    -0.12500
C742        C  0.23058931  0.92167714  0.69279715    -0.08200
C743        C  0.21797337  0.93418927  0.71513956     0.07400
C744        C  0.21819689  0.95535219  0.71043985    -0.13300
S745        S  0.25591654  0.96301283  0.62137751    -0.30200
H746        H  0.25106133  0.92130267  0.64627466     0.11700
S747        S  0.20113583  0.92419423  0.74992539    -0.27300
H748        H  0.20924187  0.96486449  0.72882019     0.08900
H749        H  0.27641354  0.04315022  0.67910958     0.27300
H750        H  0.26075838  0.94460898  0.60353819     0.22100
H751        H  0.19601204  0.90667703  0.72961803     0.27400
H752        H  0.19711407  0.97329410  0.64484750     0.16300
C753        C  0.97317620  0.27147114  0.70517871    -0.11000
C754        C  0.96080736  0.26273853  0.67772109     0.15500
C755        C  0.97018944  0.25281106  0.64749189     0.02400
C756        C  0.99153662  0.25157990  0.64579605    -0.15400
C757        C  0.00401840  0.26070707  0.67277000    -0.10200
C758        C  0.99454327  0.27091103  0.70277225     0.09100
C759        C  0.93835872  0.26603348  0.67956977     0.10200
S760        S  0.95596788  0.24212897  0.60931208    -0.24500
H761        H  0.99847439  0.24388780  0.62244014     0.20400
S762        S  0.00857790  0.28492114  0.73725261    -0.30200
H763        H  0.96607030  0.27955884  0.72794116     0.10700
C764        C  0.92451078  0.25001507  0.68541523     0.04000
C765        C  0.90334885  0.25400352  0.68369615    -0.12500
C766        C  0.89578372  0.27376335  0.67674650    -0.08200
C767        C  0.90983753  0.28994843  0.67380088     0.07400
C768        C  0.93081454  0.28584621  0.67448135    -0.13300
S769        S  0.93379367  0.22454490  0.69468871    -0.30200
H770        H  0.89268989  0.24158634  0.68648786     0.11700
S771        S  0.90212682  0.31625940  0.66997635    -0.27300
H772        H  0.94141567  0.29822466  0.67060395     0.08900
H773        H  0.02079769  0.29506729  0.71124451     0.27300
H774        H  0.91453448  0.21538383  0.69798556     0.22100
H775        H  0.88522456  0.31443164  0.69364406     0.27400
H776        H  0.93938075  0.25581651  0.61060453     0.16300
C777        C  0.13837772  0.19599385  0.71814037    -0.11000
C778        C  0.13865903  0.17998057  0.69249606     0.15500
C779        C  0.12315614  0.17901299  0.66527520     0.02400
C780        C  0.10803189  0.19419708  0.66380796    -0.15400
C781        C  0.10823492  0.21084864  0.68825377    -0.10200
C782        C  0.12332965  0.21130046  0.71653121     0.09100
C783        C  0.15520987  0.16445773  0.69490974     0.10200
S784        S  0.12236847  0.15934084  0.63051870    -0.24500
H785        H  0.09667805  0.19356075  0.64189065     0.20400
S786        S  0.12408332  0.23065312  0.75178865    -0.30200
H787        H  0.15001846  0.19656260  0.73958169     0.10700
C788        C  0.17529554  0.16891043  0.68387551     0.04000
C789        C  0.19051193  0.15379506  0.68638468    -0.12500
C790        C  0.18619811  0.13420777  0.69989930    -0.08200
C791        C  0.16579161  0.12968123  0.70996970     0.07400
C792        C  0.15067062  0.14487737  0.70773131    -0.13300
S793        S  0.18151341  0.19378529  0.66600865    -0.30200
H794        H  0.20598303  0.15743600  0.67845249     0.11700
S795        S  0.15775825  0.10483289  0.72491388    -0.27300
H796        H  0.13514537  0.14136689  0.71568536     0.08900
H797        H  0.10270897  0.23219857  0.75510057     0.27300
H798        H  0.20275169  0.19060918  0.66360481     0.22100
H799        H  0.16918104  0.09436883  0.69796960     0.27400
H800        H  0.14364486  0.15681343  0.62743323     0.16300
C801        C  0.83870214  0.34650922  0.97814714    -0.11000
C802        C  0.82144056  0.35916668  0.97480012     0.15500
C803        C  0.81241190  0.36730524  0.00698502     0.02400
C804        C  0.82219810  0.36451227  0.04123078    -0.15400
C805        C  0.84062948  0.35345034  0.04404644    -0.10200
C806        C  0.84829998  0.34338326  0.01243154     0.09100
C807        C  0.81534128  0.36551824  0.93698865     0.10200
S808        S  0.78908576  0.38213242  0.00588557    -0.24500
H809        H  0.81585792  0.37181552  0.06552294     0.20400
S810        S  0.87027887  0.32656543  0.01525874    -0.30200
H811        H  0.84526577  0.33991077  0.95341126     0.10700
C812        C  0.82044006  0.38498018  0.92350945     0.04000
C813        C  0.81936631  0.38882138  0.88538292    -0.12500
C814        C  0.81336518  0.37362865  0.86037069    -0.08200
C815        C  0.80647603  0.35477165  0.87441698     0.07400
C816        C  0.80782835  0.35084321  0.91243998    -0.13300
S817        S  0.83062216  0.40418307  0.95412754    -0.30200
H818        H  0.82455027  0.40330214  0.87473194     0.11700
S819        S  0.79829070  0.33423445  0.84508909    -0.27300
H820        H  0.80401786  0.33585175  0.92277912     0.08900
H821        H  0.86980531  0.31986838  0.97829694     0.27300
H822        H  0.83135791  0.41999700  0.92788596     0.22100
H823        H  0.78314600  0.34611596  0.82736144     0.27400
H824        H  0.78186168  0.37478248  0.97175495     0.16300
C825        C  0.85955716  0.28118732  0.39906410    -0.11000
C826        C  0.85051943  0.26477854  0.41729858     0.15500
C827        C  0.84765677  0.24621355  0.39839526     0.02400
C828        C  0.85409890  0.24443073  0.36169577    -0.15400
C829        C  0.86290033  0.26096740  0.34324733    -0.10200
C830        C  0.86604513  0.27940030  0.36248563     0.09100
C831        C  0.84568557  0.26713011  0.45681244     0.10200
S832        S  0.83581921  0.22439092  0.41948289    -0.24500
H833        H  0.85161528  0.23025847  0.34707518     0.20400
S834        S  0.87927573  0.30075652  0.34267212    -0.30200
H835        H  0.86217147  0.29527983  0.41387499     0.10700
C836        C  0.85805096  0.25797119  0.48421363     0.04000
C837        C  0.85322413  0.26086355  0.52148050    -0.12500
C838        C  0.83646413  0.27301061  0.53198426    -0.08200
C839        C  0.82394203  0.28198527  0.50431957     0.07400
C840        C  0.82884287  0.27913803  0.46703164    -0.13300
S841        S  0.88059758  0.24349665  0.47180044    -0.30200
H842        H  0.86300247  0.25419629  0.54260758     0.11700
S843        S  0.80122698  0.29655793  0.51460296    -0.27300
H844        H  0.81932847  0.28609511  0.44577222     0.08900
H845        H  0.89332851  0.28886498  0.32255159     0.27300
H846        H  0.88522627  0.23626411  0.50757318     0.22100
H847        H  0.79527155  0.28422208  0.54447910     0.27400
H848        H  0.82331389  0.23538815  0.44398950     0.16300
C849        C  0.70359956  0.11568194  0.89417595    -0.11000
C850        C  0.68749234  0.11180504  0.91844319     0.15500
C851        C  0.66735896  0.11035445  0.90464164     0.02400
C852        C  0.66388210  0.11196229  0.86660271    -0.15400
C853        C  0.68006024  0.11518216  0.84199830    -0.10200
C854        C  0.70010227  0.11760141  0.85615739     0.09100
C855        C  0.69229333  0.10843933  0.95777591     0.10200
S856        S  0.64563252  0.10560074  0.93385864    -0.24500
H857        H  0.64846644  0.11009927  0.85606630     0.20400
S858        S  0.72175971  0.12349258  0.82752582    -0.30200
H859        H  0.71902343  0.11705924  0.90495675     0.10700
C860        C  0.69390175  0.08863668  0.97245209     0.04000
C861        C  0.69766680  0.08609410  0.01037357    -0.12500
C862        C  0.70000269  0.10300819  0.03369904    -0.08200
C863        C  0.69950341  0.12281875  0.01833567     0.07400
C864        C  0.69541640  0.12532234  0.98061540    -0.13300
S865        S  0.69102059  0.06667955  0.94286958    -0.30200
H866        H  0.69820535  0.07091350  0.02208112     0.11700
S867        S  0.70469961  0.14539909  0.04496025    -0.27300
H868        H  0.69468857  0.14051594  0.96891465     0.08900
H869        H  0.71082945  0.13664772  0.80367699     0.27300
H870        H  0.69571460  0.05192326  0.96993517     0.22100
H871        H  0.71980031  0.13619548  0.06745188     0.27400
H872        H  0.65336935  0.11524717  0.96560025     0.22700
C873        C  0.79895716  0.19868578  0.16910210    -0.11000
C874        C  0.79862100  0.18170909  0.19268934     0.15500
C875        C  0.81445556  0.17904986  0.21893882     0.02400
C876        C  0.83025455  0.19327834  0.22096971    -0.15400
C877        C  0.83055500  0.21051111  0.19779315    -0.10200
C878        C  0.81474797  0.21298161  0.17114042     0.09100
C879        C  0.78242532  0.16627209  0.18750565     0.10200
S880        S  0.81526433  0.15787731  0.25077249    -0.24500
H881        H  0.84209390  0.19117040  0.24175488     0.20400
S882        S  0.81427528  0.23341505  0.13781745    -0.30200
H883        H  0.78704263  0.20055995  0.14837991     0.10700
C884        C  0.76273928  0.16882264  0.20247441     0.04000
C885        C  0.74793464  0.15373765  0.19664498    -0.12500
C886        C  0.75233006  0.13615187  0.17580216    -0.08200
C887        C  0.77204777  0.13402501  0.16009769     0.07400
C888        C  0.78687527  0.14885165  0.16669451    -0.13300
S889        S  0.75668734  0.19106880  0.22971690    -0.30200
H890        H  0.73290092  0.15559937  0.20859178     0.11700
S891        S  0.77901496  0.11352631  0.12946901    -0.27300
H892        H  0.80192136  0.14706647  0.15466738     0.08900
H893        H  0.83551055  0.23307669  0.13186812     0.27300
H894        H  0.73594143  0.18658995  0.23525504     0.22100
H895        H  0.76096305  0.11502900  0.10820459     0.27400
H896        H  0.79399005  0.15599766  0.25443306     0.16300
C897        C  0.59177287  0.12913359  0.48629656    -0.11000
C898        C  0.58044840  0.11756101  0.46103461     0.15500
C899        C  0.56383366  0.10595686  0.47363785     0.02400
C900        C  0.55978045  0.10504413  0.51144626    -0.15400
C901        C  0.57183480  0.11558797  0.53713731    -0.10200
C902        C  0.58775308  0.12816650  0.52428060     0.09100
C903        C  0.58823142  0.11506487  0.42311535     0.10200
S904        S  0.54811623  0.09087191  0.44320016    -0.24500
H905        H  0.54749381  0.09543164  0.52104017     0.20400
S906        S  0.60482171  0.14151521  0.55490187    -0.30200
H907        H  0.60469078  0.13784876  0.47661839     0.10700
C908        C  0.58362880  0.12908083  0.39475876     0.04000
C909        C  0.58962122  0.12466742  0.35836278    -0.12500
C910        C  0.60022066  0.10654242  0.35005299    -0.08200
C911        C  0.60618384  0.09338094  0.37934033     0.07400
C912        C  0.59982425  0.09762295  0.41531231    -0.13300
S913        S  0.56905242  0.15184565  0.40467831    -0.30200
H914        H  0.58514285  0.13484706  0.33610672     0.11700
S915        S  0.62202250  0.07106836  0.37295601    -0.27300
H916        H  0.60377749  0.08712832  0.43747549     0.08900
H917        H  0.60811244  0.12473369  0.57846642     0.27300
H918        H  0.56897783  0.15969842  0.36842918     0.22100
H919        H  0.63415364  0.07982679  0.34520426     0.27400
H920        H  0.55077669  0.10288049  0.41140848     0.16300
C921        C  0.37530451  0.11312160  0.48199170    -0.11000
C922        C  0.35943155  0.12066012  0.45947003     0.15500
C923        C  0.34148116  0.12834114  0.47618816     0.02400
C924        C  0.33913725  0.12674313  0.51456210    -0.15400
C925        C  0.35442700  0.11779409  0.53674694    -0.10200
C926        C  0.37318519  0.11202733  0.52040049     0.09100
C927        C  0.36084830  0.11739442  0.41899601     0.10200
S928        S  0.32063385  0.13936290  0.44990345    -0.24500
H929        H  0.32481470  0.13152416  0.52686761     0.20400
S930        S  0.39488058  0.10295232  0.54689271    -0.30200
H931        H  0.38919677  0.10734898  0.46943186     0.10700
C932        C  0.37642003  0.12610752  0.39739783     0.04000
C933        C  0.37828443  0.12053861  0.36001634    -0.12500
C934        C  0.36504506  0.10624711  0.34409620    -0.08200
C935        C  0.34882527  0.09843348  0.36535109     0.07400
C936        C  0.34708520  0.10386621  0.40251508    -0.13300
S937        S  0.39412474  0.14395028  0.41756060    -0.30200
H938        H  0.39066110  0.12656895  0.34363450     0.11700
S939        S  0.32977951  0.08154477  0.34669528    -0.27300
H940        H  0.33506162  0.09718836  0.41898832     0.08900
H941        H  0.39076710  0.11501775  0.57819256     0.27300
H942        H  0.40467045  0.14847226  0.38477153     0.22100
H943        H  0.32944773  0.09041554  0.31122072     0.27400
H944        H  0.33256021  0.14589039  0.41994923     0.16300
C945        C  0.47202510  0.11431464  0.22697675    -0.11000
C946        C  0.47928685  0.11235707  0.19070816     0.15500
C947        C  0.46518385  0.10878459  0.16166968     0.02400
C948        C  0.44449865  0.10568500  0.16996345    -0.15400
C949        C  0.43759083  0.10612007  0.20670181    -0.10200
C950        C  0.45140794  0.11154727  0.23519142     0.09100
C951        C  0.50175371  0.11075169  0.18574153     0.10200
S952        S  0.47281587  0.10709181  0.11388409    -0.24500
H953        H  0.43398583  0.10179746  0.14783090     0.20400
S954        S  0.44380912  0.11469863  0.28279162    -0.30200
H955        H  0.48269638  0.11715332  0.24942553     0.10700
C956        C  0.51500857  0.12667902  0.19578030     0.04000
C957        C  0.53610703  0.12276723  0.19911135    -0.12500
C958        C  0.54415601  0.10319521  0.19273208    -0.08200
C959        C  0.53101970  0.08788018  0.17907852     0.07400
C960        C  0.51003277  0.09174146  0.17623946    -0.13300
S961        S  0.50491922  0.15174927  0.20559325    -0.30200
H962        H  0.54614738  0.13462943  0.20895491     0.11700
S963        S  0.53995068  0.06293386  0.16558334    -0.27300
H964        H  0.49994348  0.07950790  0.16810541     0.08900
H965        H  0.42398041  0.12188576  0.27454109     0.27300
H966        H  0.52369856  0.16081783  0.21458767     0.22100
H967        H  0.55904034  0.06959336  0.15278176     0.27400
H968        H  0.49046543  0.11900324  0.11758573     0.16300
C969        C  0.11411336  0.33330246  0.96084909    -0.11000
C970        C  0.12485553  0.34853053  0.94214232     0.15500
C971        C  0.13851499  0.36095929  0.96211028     0.02400
C972        C  0.13955505  0.35933294  0.00068706    -0.15400
C973        C  0.12738608  0.34534655  0.01973859    -0.10200
C974        C  0.11553357  0.33133602  0.99932992     0.09100
C975        C  0.11919357  0.35305905  0.90327590     0.10200
S976        S  0.15406445  0.37996419  0.94012771    -0.24500
H977        H  0.14893538  0.36995597  0.01600843     0.20400
S978        S  0.10154234  0.31098171  0.02083625    -0.30200
H979        H  0.10390334  0.32345016  0.94555231     0.10700
C980        C  0.12382846  0.33964185  0.87411553     0.04000
C981        C  0.11668189  0.34411568  0.83825050    -0.12500
C982        C  0.10486245  0.36169774  0.83105900    -0.08200
C983        C  0.10123766  0.37561333  0.86018762     0.07400
C984        C  0.10815266  0.37099194  0.89590445    -0.13300
S985        S  0.13864834  0.31679342  0.88270239    -0.30200
H986        H  0.11960118  0.33344837  0.81604980     0.11700
S987        S  0.08830228  0.39969127  0.85364516    -0.27300
H988        H  0.10481946  0.38144936  0.91830265     0.08900
H989        H  0.11521693  0.30845665  0.05074541     0.27300
H990        H  0.13993772  0.31047122  0.84559666     0.22100
H991        H  0.09687152  0.40344619  0.81866754     0.27400
H992        H  0.15493760  0.37041443  0.90535519     0.16300
C993        C  0.97569063  0.34706589  0.16505494    -0.11000
C994        C  0.98486456  0.36457140  0.15057367     0.15500
C995        C  0.97241728  0.38010431  0.13509675     0.02400
C996        C  0.95121992  0.37761303  0.13374343    -0.15400
C997        C  0.94204537  0.36013958  0.14827142    -0.10200
C998        C  0.95446863  0.34464201  0.16393129     0.09100
C999        C  0.00744245  0.36533919  0.14877241     0.10200
S1000       S  0.98262936  0.40347947  0.11686447    -0.24500
H1001       H  0.94175189  0.38962809  0.12195899     0.20400
S1002       S  0.94430769  0.32095351  0.18081895    -0.30200
H1003       H  0.98520484  0.33490590  0.17620868     0.10700
C1004       C  0.01969899  0.36662433  0.18088601     0.04000
C1005       C  0.04107283  0.36670128  0.17750737    -0.12500
C1006       C  0.05042491  0.36564486  0.14261272    -0.08200
C1007       C  0.03794970  0.36535344  0.11045476     0.07400
C1008       C  0.01672524  0.36472428  0.11395331    -0.13300
S1009       S  0.00812245  0.36853915  0.22603011    -0.30200
H1010       H  0.05053738  0.36714755  0.20217146     0.11700
S1011       S  0.04798534  0.36667472  0.06412873    -0.27300
H1012       H  0.00729020  0.36406476  0.08922531     0.08900
H1013       H  0.92863142  0.31958944  0.15413906     0.27300
H1014       H  0.02640320  0.36792085  0.24669344     0.22100
H1015       H  0.06345287  0.38061152  0.07316218     0.27400
H1016       H  0.99994614  0.40404577  0.14005271     0.16300
C1017       C  0.11421474  0.27673957  0.49150293    -0.11000
C1018       C  0.10312817  0.26614844  0.46459743     0.15500
C1019       C  0.08563751  0.25515622  0.47502364     0.02400
C1020       C  0.07974733  0.25482770  0.51216543    -0.15400
C1021       C  0.09070106  0.26556230  0.53933663    -0.10200
C1022       C  0.10806419  0.27686367  0.52850814     0.09100
C1023       C  0.11005517  0.26681815  0.42580621     0.10200
S1024       S  0.07022630  0.24123043  0.44227944    -0.24500
H1025       H  0.06643656  0.24610026  0.51983479     0.20400
S1026       S  0.12261877  0.29245672  0.55985128    -0.30200
H1027       H  0.12755726  0.28531358  0.48341362     0.10700
C1028       C  0.10681288  0.28423642  0.40365903     0.04000
C1029       C  0.11131141  0.28336706  0.36581130    -0.12500
C1030       C  0.11903735  0.26544698  0.34983866    -0.08200
C1031       C  0.12391158  0.24864160  0.37280562     0.07400
C1032       C  0.11907318  0.24939030  0.41041870    -0.13300
S1033       S  0.09570496  0.30708895  0.42305743    -0.30200
H1034       H  0.10775910  0.29630260  0.34824304     0.11700
S1035       S  0.13653103  0.22600908  0.35592251    -0.27300
H1036       H  0.12209838  0.23621916  0.42776684     0.08900
H1037       H  0.10523440  0.30172154  0.57551405     0.27300
H1038       H  0.09533639  0.31856088  0.39014139     0.22100
H1039       H  0.14777323  0.23603572  0.32835036     0.27400
H1040       H  0.07311689  0.25450246  0.41223398     0.16300
C1041       C  0.01945863  0.23469694  0.22152795    -0.11000
C1042       C  0.00889980  0.24996790  0.20192995     0.15500
C1043       C  0.02011779  0.26512331  0.18335675     0.02400
C1044       C  0.04152336  0.26504673  0.18583725    -0.15400
C1045       C  0.05212166  0.25020254  0.20663832    -0.10200
C1046       C  0.04085148  0.23452571  0.22380729     0.09100
C1047       C  0.98627966  0.25079176  0.20450150     0.10200
S1048       S  0.00799130  0.28566493  0.15804432    -0.24500
H1049       H  0.04991123  0.27722870  0.17271120     0.20400
S1050       S  0.05281430  0.21386316  0.24894438    -0.30200
H1051       H  0.01091526  0.22299245  0.23573008     0.10700
C1052       C  0.97354039  0.24003505  0.17993796     0.04000
C1053       C  0.95217981  0.24097446  0.18436485    -0.12500
C1054       C  0.94323594  0.25270665  0.21267285    -0.08200
C1055       C  0.95625075  0.26420225  0.23613692     0.07400
C1056       C  0.97747440  0.26273122  0.23227914    -0.13300
S1057       S  0.98455567  0.22546547  0.14260935    -0.30200
H1058       H  0.94243552  0.23239467  0.16589338     0.11700
S1059       S  0.94697458  0.28195570  0.27026310    -0.27300
H1060       H  0.98727421  0.27136064  0.25065883     0.08900
H1061       H  0.06994263  0.21244706  0.22567801     0.27300
H1062       H  0.96597676  0.22010247  0.12560272     0.22100
H1063       H  0.93215297  0.29065326  0.24653879     0.27400
H1064       H  0.99042022  0.27494746  0.14749237     0.16300
C1065       C  0.24226286  0.10397305  0.98306688    -0.11000
C1066       C  0.25773511  0.09988070  0.95746687     0.15500
C1067       C  0.27765449  0.09509959  0.97018837     0.02400
C1068       C  0.28141985  0.09368651  0.00823259    -0.15400
C1069       C  0.26575543  0.09699699  0.03395489    -0.10200
C1070       C  0.24604820  0.10270645  0.02110615     0.09100
C1071       C  0.25222422  0.09932148  0.91786161     0.10200
S1072       S  0.29868934  0.08980349  0.93944613    -0.24500
H1073       H  0.29657628  0.08935967  0.01777880     0.20400
S1074       S  0.22512530  0.10875259  0.05157082    -0.30200
H1075       H  0.22702295  0.10782858  0.97328519     0.10700
C1076       C  0.25051565  0.08067305  0.89902592     0.04000
C1077       C  0.24595616  0.08071796  0.86116325    -0.12500
C1078       C  0.24278387  0.09902980  0.84177498    -0.08200
C1079       C  0.24316196  0.11766027  0.86139464     0.07400
C1080       C  0.24817598  0.11761158  0.89910033    -0.13300
S1081       S  0.25395361  0.05680260  0.92330628    -0.30200
H1082       H  0.24535139  0.06640282  0.84640351     0.11700
S1083       S  0.23661445  0.14180067  0.84049258    -0.27300
H1084       H  0.24883521  0.13190230  0.91401097     0.08900
H1085       H  0.23727715  0.11862702  0.07820053     0.27300
H1086       H  0.25215475  0.04405497  0.89223158     0.22100
H1087       H  0.22108039  0.13391437  0.81767598     0.27400
H1088       H  0.29138701  0.10139008  0.90936507     0.16300
C1089       C  0.18062545  0.18888025  0.17031105    -0.11000
C1090       C  0.19106295  0.18155503  0.20177034     0.15500
C1091       C  0.18780163  0.19119218  0.23617700     0.02400
C1092       C  0.17424373  0.20773806  0.23837899    -0.15400
C1093       C  0.16342108  0.21482380  0.20713023    -0.10200
C1094       C  0.16698394  0.20541757  0.17254891     0.09100
C1095       C  0.20592072  0.16449201  0.19752853     0.10200
S1096       S  0.20011527  0.18287281  0.27844645    -0.24500
H1097       H  0.17161829  0.21472915  0.26511976     0.20400
S1098       S  0.15542596  0.21436359  0.13009089    -0.30200
H1099       H  0.18341306  0.18185365  0.14366315     0.10700
C1100       C  0.19950300  0.14454631  0.18936891     0.04000
C1101       C  0.21417739  0.12900729  0.18461540    -0.12500
C1102       C  0.23521127  0.13296602  0.18797329    -0.08200
C1103       C  0.24143946  0.15282805  0.19792198     0.07400
C1104       C  0.22682558  0.16834273  0.20197135    -0.13300
S1105       S  0.17260811  0.13889329  0.18532574    -0.30200
H1106       H  0.20926820  0.11385195  0.17715116     0.11700
S1107       S  0.26770785  0.15928611  0.20701906    -0.27300
H1108       H  0.23177875  0.18357405  0.20896408     0.08900
H1109       H  0.15626076  0.23510909  0.13956843     0.27300
H1110       H  0.17490907  0.11795265  0.17829110     0.22100
H1111       H  0.27261834  0.14064507  0.22429876     0.27400
H1112       H  0.20147082  0.16216646  0.26893831     0.16300
C1113       C  0.57261395  0.83815568  0.46521048    -0.11000
C1114       C  0.58894008  0.82472844  0.45875595     0.15500
C1115       C  0.59911520  0.81552630  0.48904619     0.02400
C1116       C  0.59346382  0.82084576  0.52513254    -0.15400
C1117       C  0.57787228  0.83523970  0.53163210    -0.10200
C1118       C  0.56683969  0.84335532  0.50113550     0.09100
C1119       C  0.59647116  0.82309590  0.42041509     0.10200
S1120       S  0.61995871  0.79769209  0.48340041    -0.24500
H1121       H  0.60198981  0.81443270  0.54822831     0.20400
S1122       S  0.54544905  0.86060566  0.50594661    -0.30200
H1123       H  0.56471935  0.84518122  0.44194500     0.10700
C1124       C  0.58497588  0.81345492  0.39251827     0.04000
C1125       C  0.59048462  0.81606241  0.35532523    -0.12500
C1126       C  0.60713559  0.82831559  0.34571383    -0.08200
C1127       C  0.61959098  0.83648978  0.37400965     0.07400
C1128       C  0.61403378  0.83393440  0.41097518    -0.13300
S1129       S  0.56286539  0.79857466  0.40435152    -0.30200
H1130       H  0.58105736  0.80962851  0.33363879     0.11700
S1131       S  0.64250214  0.85064666  0.36472258    -0.27300
H1132       H  0.62299716  0.84116764  0.43251171     0.08900
H1133       H  0.53802447  0.85152275  0.53845135     0.27300
H1134       H  0.55769618  0.79283701  0.36800722     0.22100
H1135       H  0.64761308  0.83982640  0.33243511     0.27400
H1136       H  0.61405343  0.79073455  0.44817473     0.16300
C1137       C  0.61769870  0.98850356  0.24718687    -0.11000
C1138       C  0.60723828  0.97937905  0.21774873     0.15500
C1139       C  0.59793233  0.99165980  0.19022191     0.02400
C1140       C  0.59901935  0.01284798  0.19325842    -0.15400
C1141       C  0.60900929  0.02203899  0.22334297    -0.10200
C1142       C  0.61898694  0.00962965  0.24999061     0.09100
C1143       C  0.60671374  0.95700061  0.21682476     0.10200
S1144       S  0.58443963  0.98147760  0.15070984    -0.24500
H1145       H  0.59143959  0.02222646  0.17254597     0.20400
S1146       S  0.63433466  0.01966421  0.28724612    -0.30200
H1147       H  0.62521629  0.97902989  0.26784635     0.10700
C1148       C  0.62102462  0.94567989  0.19629358     0.04000
C1149       C  0.62101378  0.92438967  0.19880212    -0.12500
C1150       C  0.60699083  0.91425908  0.22155271    -0.08200
C1151       C  0.59207629  0.92575433  0.24078168     0.07400
C1152       C  0.59235108  0.94697925  0.23871369    -0.13300
S1153       S  0.63967380  0.95841712  0.16796259    -0.30200
H1154       H  0.63234155  0.91562721  0.18381720     0.11700
S1155       S  0.57186467  0.91435783  0.26723237    -0.27300
H1156       H  0.58120149  0.95579664  0.25410285     0.08900
H1157       H  0.64269105  0.03550954  0.26603321     0.27300
H1158       H  0.64933568  0.94074894  0.15444700     0.22100
H1159       H  0.56848477  0.89839204  0.24204293     0.27400
H1160       H  0.58060370  0.96201017  0.16498179     0.16300
C1161       C  0.83335786  0.69946369  0.40871314    -0.11000
C1162       C  0.84875907  0.69640559  0.43527128     0.15500
C1163       C  0.86895763  0.69230385  0.42378226     0.02400
C1164       C  0.87320247  0.69095990  0.38600678    -0.15400
C1165       C  0.85776125  0.69369543  0.35927861    -0.10200
C1166       C  0.83766839  0.69843716  0.37089229     0.09100
C1167       C  0.84329653  0.69729511  0.47475115     0.10200
S1168       S  0.88989555  0.68819974  0.45578339    -0.24500
H1169       H  0.88866611  0.68737864  0.37742830     0.20400
S1170       S  0.81706327  0.70409113  0.33909102    -0.30200
H1171       H  0.81790144  0.70286026  0.41757802     0.10700
C1172       C  0.83986350  0.71604062  0.49259077     0.04000
C1173       C  0.83654179  0.71630717  0.53083792    -0.12500
C1174       C  0.83628011  0.69817188  0.55141091    -0.08200
C1175       C  0.83910931  0.67934332  0.53313504     0.07400
C1176       C  0.84245783  0.67912405  0.49498586    -0.13300
S1177       S  0.84048535  0.73963562  0.46689362    -0.30200
H1178       H  0.83435298  0.73069928  0.54490141     0.11700
S1179       S  0.84003993  0.65524248  0.55707210    -0.27300
H1180       H  0.84513621  0.66473501  0.48111357     0.08900
H1181       H  0.82929065  0.71462414  0.31363240     0.27300
H1182       H  0.83578313  0.75257540  0.49669919     0.22100
H1183       H  0.85244110  0.66224960  0.58627200     0.27400
H1184       H  0.88231533  0.70053787  0.48440501     0.16300
C1185       C  0.67107852  0.86255005  0.98280297    -0.11000
C1186       C  0.68656750  0.86691621  0.95760391     0.15500
C1187       C  0.70675423  0.86981649  0.97034034     0.02400
C1188       C  0.71119933  0.86725450  0.00796871    -0.15400
C1189       C  0.69578222  0.86230489  0.03322939    -0.10200
C1190       C  0.67536294  0.86059009  0.02049180     0.09100
C1191       C  0.68121328  0.86776943  0.91809596     0.10200
S1192       S  0.72746564  0.87641202  0.93991829    -0.24500
H1193       H  0.72682884  0.86891087  0.01749892     0.20400
S1194       S  0.65393284  0.85680357  0.05083540    -0.30200
H1195       H  0.65550685  0.86075702  0.97299395     0.10700
C1196       C  0.68589154  0.85146434  0.89435330     0.04000
C1197       C  0.68107666  0.85313935  0.85674188    -0.12500
C1198       C  0.67170971  0.87080959  0.84245816    -0.08200
C1199       C  0.66608622  0.88669607  0.86681293     0.07400
C1200       C  0.67103200  0.88504429  0.90435715    -0.13300
S1201       S  0.69808972  0.82861017  0.91192330    -0.30200
H1202       H  0.68527268  0.84090084  0.83817130     0.11700
S1203       S  0.65222472  0.90912952  0.85204401    -0.27300
H1204       H  0.66701020  0.89732568  0.92302662     0.08900
H1205       H  0.66115502  0.87004929  0.07847220     0.27300
H1206       H  0.70000700  0.81859697  0.87770459     0.22100
H1207       H  0.64021799  0.89891196  0.82562917     0.27400
H1208       H  0.71553736  0.88719098  0.91388430     0.16300
C1209       C  0.70153865  0.95084191  0.19460698    -0.11000
C1210       C  0.71822611  0.96094398  0.17907759     0.15500
C1211       C  0.73493587  0.94935847  0.16588919     0.02400
C1212       C  0.73372504  0.92807285  0.16522435    -0.15400
C1213       C  0.71639258  0.91788939  0.17843547    -0.10200
C1214       C  0.70061627  0.92954852  0.19517787     0.09100
C1215       C  0.71702808  0.98342479  0.17492243     0.10200
S1216       S  0.75792110  0.96081362  0.14841358    -0.24500
H1217       H  0.74618564  0.91947020  0.15309900     0.20400
S1218       S  0.67895419  0.91839696  0.21795421    -0.30200
H1219       H  0.68893132  0.95964435  0.20578255     0.10700
C1220       C  0.71407774  0.99256886  0.13994053     0.04000
C1221       C  0.71214818  0.01381858  0.13729474    -0.12500
C1222       C  0.71263763  0.02628080  0.16895081    -0.08200
C1223       C  0.71500136  0.01691376  0.20410406     0.07400
C1224       C  0.71743799  0.99571876  0.20661015    -0.13300
S1225       S  0.71198404  0.97714865  0.09870344    -0.30200
H1226       H  0.71017205  0.02076231  0.11030236     0.11700
S1227       S  0.71369676  0.03083690  0.24693283    -0.27300
H1228       H  0.71914263  0.98866657  0.23360501     0.08900
H1229       H  0.69034084  0.90238532  0.23408134     0.27300
H1230       H  0.70657202  0.99301155  0.07425996     0.22100
H1231       H  0.69652419  0.04248222  0.23607496     0.27400
H1232       H  0.75643373  0.97885630  0.16912053     0.16300
C1233       C  0.78497987  0.78588658  0.14167842    -0.11000
C1234       C  0.79030063  0.77969690  0.17759081     0.15500
C1235       C  0.78059163  0.78895042  0.20812120     0.02400
C1236       C  0.76497614  0.80330026  0.20205154    -0.15400
C1237       C  0.75916786  0.80917090  0.16605313    -0.10200
C1238       C  0.76990408  0.80079520  0.13559928     0.09100
C1239       C  0.80536118  0.76295918  0.18243063     0.10200
S1240       S  0.78717930  0.78280296  0.25542314    -0.24500
H1241       H  0.75719375  0.80980966  0.22569671     0.20400
S1242       S  0.76589837  0.80912472  0.08852642    -0.30200
H1243       H  0.79273947  0.77913186  0.11822160     0.10700
C1244       C  0.79898904  0.74290682  0.18927981     0.04000
C1245       C  0.81365471  0.72768664  0.19630019    -0.12500
C1246       C  0.83466833  0.73209049  0.19704183    -0.08200
C1247       C  0.84098409  0.75209979  0.18814751     0.07400
C1248       C  0.82627804  0.76727063  0.18110071    -0.13300
S1249       S  0.77210908  0.73684465  0.19007007    -0.30200
H1250       H  0.80863110  0.71244428  0.20279779     0.11700
S1251       S  0.86741856  0.75934322  0.18509863    -0.27300
H1252       H  0.83114953  0.78265489  0.17514913     0.08900
H1253       H  0.76408619  0.82987707  0.09770233     0.27300
H1254       H  0.77445181  0.71601897  0.19830496     0.22100
H1255       H  0.87366602  0.74122755  0.16759844     0.27400
H1256       H  0.80786485  0.77822038  0.24896480     0.16300
C1257       C  0.83711551  0.57561304  0.00457785    -0.11000
C1258       C  0.82834331  0.59459132  0.99607077     0.15500
C1259       C  0.82445624  0.60864518  0.02467118     0.02400
C1260       C  0.83111411  0.60414800  0.06063063    -0.15400
C1261       C  0.84133719  0.58576787  0.06867325    -0.10200
C1262       C  0.84336748  0.57092464  0.04065912     0.09100
C1263       C  0.82621311  0.60014716  0.95669745     0.10200
S1264       S  0.81239126  0.63302740  0.01652696    -0.24500
H1265       H  0.82920527  0.61552666  0.08206142     0.20400
S1266       S  0.85382494  0.54585595  0.04911337    -0.30200
H1267       H  0.83974368  0.56465073  0.98267406     0.10700
C1268       C  0.84220129  0.61003896  0.93828305     0.04000
C1269       C  0.84115350  0.61249299  0.89982896    -0.12500
C1270       C  0.82420252  0.60563607  0.87928554    -0.08200
C1271       C  0.80740952  0.59727308  0.89862885     0.07400
C1272       C  0.80888070  0.59408958  0.93688461    -0.13300
S1273       S  0.86438217  0.61871707  0.96363671    -0.30200
H1274       H  0.85391383  0.61931438  0.88564458     0.11700
S1275       S  0.78386768  0.58998303  0.87654093    -0.27300
H1276       H  0.79645931  0.58678798  0.95135978     0.08900
H1277       H  0.84658369  0.54439045  0.08562487     0.27300
H1278       H  0.87439598  0.62771903  0.93347880     0.22100
H1279       H  0.78127167  0.60892815  0.85877802     0.27400
H1280       H  0.80082630  0.62698827  0.98560679     0.16300
C1281       C  0.86533488  0.48880288  0.23364392    -0.11000
C1282       C  0.84904178  0.48053897  0.21349980     0.15500
C1283       C  0.83386309  0.49371287  0.19876187     0.02400
C1284       C  0.83670606  0.51482642  0.20043877    -0.15400
C1285       C  0.85433484  0.52303240  0.21683767    -0.10200
C1286       C  0.86806298  0.50985288  0.23569043     0.09100
C1287       C  0.85063508  0.45880708  0.20280973     0.10200
S1288       S  0.81160571  0.48446122  0.17459883    -0.24500
H1289       H  0.82593055  0.52475712  0.18620992     0.20400
S1290       S  0.89001516  0.51887829  0.26098642    -0.30200
H1291       H  0.87679639  0.47876870  0.24571531     0.10700
C1292       C  0.85651062  0.45339567  0.16661948     0.04000
C1293       C  0.86063069  0.43297534  0.15835334    -0.12500
C1294       C  0.85928452  0.41765383  0.18543435    -0.08200
C1295       C  0.85338191  0.42313512  0.22174791     0.07400
C1296       C  0.84899892  0.44359408  0.22993850    -0.13300
S1297       S  0.85995273  0.47260026  0.13126781    -0.30200
H1298       H  0.86516651  0.42893867  0.13052595     0.11700
S1299       S  0.85251554  0.40514141  0.25934745    -0.27300
H1300       H  0.84502385  0.44781600  0.25799381     0.08900
H1301       H  0.88118823  0.53775003  0.27047779     0.27300
H1302       H  0.86579773  0.45937549  0.10256685     0.22100
H1303       H  0.87093048  0.39531625  0.24980055     0.27400
H1304       H  0.81139771  0.46524957  0.19179828     0.16300
C1305       C  0.38537230  0.82356336  0.40724270    -0.11000
C1306       C  0.36632854  0.81513126  0.41566381     0.15500
C1307       C  0.35426264  0.80698720  0.38686506     0.02400
C1308       C  0.36064821  0.80905491  0.35014445    -0.15400
C1309       C  0.37897755  0.81896266  0.34148115    -0.10200
C1310       C  0.39197943  0.82521816  0.37064810     0.09100
C1311       C  0.35831400  0.81797783  0.45355967     0.10200
S1312       S  0.33011346  0.79479247  0.39513952    -0.24500
H1313       H  0.35063078  0.80391302  0.32813865     0.20400
S1314       S  0.41695737  0.83575879  0.36306554    -0.30200
H1315       H  0.39482223  0.82965846  0.42927089     0.10700
C1316       C  0.36814218  0.80945834  0.48483247     0.04000
C1317       C  0.36187530  0.81537027  0.52031492    -0.12500
C1318       C  0.34616055  0.82979181  0.52503141    -0.08200
C1319       C  0.33529267  0.83702236  0.49374646     0.07400
C1320       C  0.34162097  0.83123138  0.45840602    -0.13300
S1321       S  0.38901906  0.79156289  0.47959133    -0.30200
H1322       H  0.37007672  0.80971754  0.54436896     0.11700
S1323       S  0.31341184  0.85377715  0.49708563    -0.27300
H1324       H  0.33387761  0.83762621  0.43441106     0.08900
H1325       H  0.42117675  0.82361995  0.33193665     0.27300
H1326       H  0.39251798  0.78811718  0.51756272     0.22100
H1327       H  0.30715642  0.84677147  0.53202840     0.27400
H1328       H  0.33481003  0.78820891  0.43129010     0.16300
C1329       C  0.36926790  0.98220634  0.21188038    -0.11000
C1330       C  0.38547289  0.97214679  0.22990492     0.15500
C1331       C  0.40073534  0.98363887  0.24782194     0.02400
C1332       C  0.39918216  0.00489813  0.24813159    -0.15400
C1333       C  0.38299213  0.01503658  0.23006136    -0.10200
C1334       C  0.36774944  0.00347162  0.21203793     0.09100
C1335       C  0.38589418  0.94966003  0.23000953     0.10200
S1336       S  0.42248323  0.97209943  0.27084976    -0.24500
H1337       H  0.41091967  0.01362605  0.26205092     0.20400
S1338       S  0.34541000  0.01479627  0.19063379    -0.30200
H1339       H  0.35744760  0.97338696  0.19839124     0.10700
C1340       C  0.38032086  0.93838926  0.26153530     0.04000
C1341       C  0.38152237  0.91707573  0.26057601    -0.12500
C1342       C  0.38825581  0.90679021  0.22876034    -0.08200
C1343       C  0.39432794  0.91826519  0.19755224     0.07400
C1344       C  0.39264242  0.93949024  0.19826686    -0.13300
S1345       S  0.37135262  0.95114401  0.30269671    -0.30200
H1346       H  0.37681711  0.90835921  0.28448333     0.11700
S1347       S  0.40549731  0.90694547  0.15691704    -0.27300
H1348       H  0.39728895  0.94823157  0.17430413     0.08900
H1349       H  0.34270106  0.02996129  0.21767181     0.27300
H1350       H  0.36768966  0.93349955  0.32367639     0.22100
H1351       H  0.41693900  0.89224678  0.17665961     0.27400
H1352       H  0.42378876  0.95473114  0.24830823     0.16300
C1353       C  0.47898344  0.81078943  0.20931393    -0.11000
C1354       C  0.48725250  0.81991081  0.17774477     0.15500
C1355       C  0.47395536  0.82772774  0.15019365     0.02400
C1356       C  0.45286333  0.82833428  0.15673274    -0.15400
C1357       C  0.44463563  0.82079382  0.18987161    -0.10200
C1358       C  0.45792157  0.81129425  0.21585715     0.09100
C1359       C  0.50938962  0.82451302  0.17817030     0.10200
S1360       S  0.48313373  0.83837031  0.10738270    -0.24500
H1361       H  0.44287911  0.83547919  0.13642189     0.20400
S1362       S  0.44944238  0.80196243  0.26005537    -0.30200
H1363       H  0.48915107  0.80483096  0.23057628     0.10700
C1364       C  0.51613802  0.84434918  0.18609791     0.04000
C1365       C  0.53701853  0.84791185  0.19084136    -0.12500
C1366       C  0.55157840  0.83210508  0.18800945    -0.08200
C1367       C  0.54481588  0.81243393  0.17789094     0.07400
C1368       C  0.52380128  0.80878050  0.17382513    -0.13300
S1369       S  0.49812982  0.86497975  0.19326756    -0.30200
H1370       H  0.54185114  0.86302198  0.19870993     0.11700
S1371       S  0.56203141  0.79145380  0.16946606    -0.27300
H1372       H  0.51862034  0.79356966  0.16736719     0.08900
H1373       H  0.43898101  0.82006192  0.26912941     0.27300
H1374       H  0.51243293  0.88083893  0.19196128     0.22100
H1375       H  0.57633277  0.80334823  0.15033943     0.27400
H1376       H  0.50189444  0.82778073  0.10719878     0.16300
C1377       C  0.25599284  0.86497958  0.98007303    -0.11000
C1378       C  0.26316811  0.84911381  0.95765856     0.15500
C1379       C  0.27429572  0.83286303  0.97373957     0.02400
C1380       C  0.27839459  0.83304640  0.01176231    -0.15400
C1381       C  0.27118966  0.84888956  0.03440540    -0.10200
C1382       C  0.25995170  0.86513477  0.01813318     0.09100
C1383       C  0.25998334  0.85068520  0.91729993     0.10200
S1384       S  0.28346145  0.81140010  0.94732878    -0.24500
H1385       H  0.28687737  0.82043800  0.02389412     0.20400
S1386       S  0.25114652  0.88701042  0.04377369    -0.30200
H1387       H  0.24769480  0.87761351  0.96759459     0.10700
C1388       C  0.24077792  0.84703477  0.90101212     0.04000
C1389       C  0.23838277  0.84920901  0.86260635    -0.12500
C1390       C  0.25489762  0.85477062  0.84014691    -0.08200
C1391       C  0.27411358  0.85862676  0.85685166     0.07400
C1392       C  0.27645510  0.85635768  0.89510682    -0.13300
S1393       S  0.21956957  0.83892473  0.92904419    -0.30200
H1394       H  0.22369408  0.84616817  0.84991580     0.11700
S1395       S  0.29600059  0.86734773  0.83140800    -0.27300
H1396       H  0.29115788  0.85939231  0.90784630     0.08900
H1397       H  0.26920781  0.88889303  0.06479426     0.27300
H1398       H  0.20586315  0.83540152  0.89965180     0.22100
H1399       H  0.28471863  0.88079189  0.80865940     0.27400
H1400       H  0.26797417  0.81195489  0.92021083     0.16300
C1401       C  0.26788506  0.98566287  0.13770743    -0.11000
C1402       C  0.27376015  0.97703018  0.17173860     0.15500
C1403       C  0.27912680  0.98999566  0.20134564     0.02400
C1404       C  0.27857210  0.01114345  0.19625981    -0.15400
C1405       C  0.27290783  0.01981608  0.16212381    -0.10200
C1406       C  0.26744244  0.00686263  0.13248034     0.09100
C1407       C  0.27513127  0.95448035  0.17468375     0.10200
S1408       S  0.28706557  0.98049223  0.24604863    -0.24500
H1409       H  0.28300085  0.02093503  0.21904445     0.20400
S1410       S  0.25929326  0.01714016  0.08828735    -0.30200
H1411       H  0.26383684  0.97564513  0.11505515     0.10700
C1412       C  0.25751241  0.94224954  0.17480483     0.04000
C1413       C  0.25958125  0.92091162  0.17482968    -0.12500
C1414       C  0.27894544  0.91147948  0.17434956    -0.08200
C1415       C  0.29656342  0.92388728  0.17609788     0.07400
C1416       C  0.29444905  0.94512999  0.17583302    -0.13300
S1417       S  0.23240190  0.95386923  0.17475789    -0.30200
H1418       H  0.24604958  0.91154037  0.17382300     0.11700
S1419       S  0.32217763  0.91366153  0.17942535    -0.27300
H1420       H  0.30801900  0.95449696  0.17627597     0.08900
H1421       H  0.25656222  0.99841244  0.07017184     0.27300
H1422       H  0.22127506  0.93574258  0.17119046     0.22100
H1423       H  0.31683785  0.89700103  0.20180679     0.27400
H1424       H  0.27495776  0.96292011  0.24526014     0.16300
C1425       C  0.10616957  0.67187409  0.40913036    -0.11000
C1426       C  0.10295726  0.69155926  0.42283022     0.15500
C1427       C  0.10390237  0.70838729  0.39867790     0.02400
C1428       C  0.10721305  0.70504619  0.36105862    -0.15400
C1429       C  0.10987712  0.68528358  0.34692161    -0.10200
C1430       C  0.10932530  0.66848356  0.37148101     0.09100
C1431       C  0.09788989  0.69367380  0.46222169     0.10200
S1432       S  0.10079202  0.73439964  0.41382017    -0.24500
H1433       H  0.10773514  0.71807511  0.34265650     0.20400
S1434       S  0.11101299  0.64234919  0.35666012    -0.30200
H1435       H  0.10535814  0.65895856  0.42778710     0.10700
C1436       C  0.07791923  0.69861034  0.47381720     0.04000
C1437       C  0.07354007  0.69878829  0.51170724    -0.12500
C1438       C  0.08869416  0.69389463  0.53789674    -0.08200
C1439       C  0.10884594  0.68970148  0.52614907     0.07400
C1440       C  0.11314024  0.68934055  0.48843077    -0.13300
S1441       S  0.05783645  0.70371058  0.44044454    -0.30200
H1442       H  0.05815379  0.70209187  0.52095931     0.11700
S1443       S  0.12985993  0.68538439  0.55783168    -0.27300
H1444       H  0.12851306  0.68573853  0.47935771     0.08900
H1445       H  0.09663880  0.64486264  0.32784629     0.27300
H1446       H  0.04196585  0.70648174  0.46609666     0.22100
H1447       H  0.12314336  0.69960519  0.58429091     0.27400
H1448       H  0.10716584  0.73128649  0.45061125     0.16300
C1449       C  0.97532648  0.69283501  0.24764217    -0.11000
C1450       C  0.98292726  0.68729022  0.21284047     0.15500
C1451       C  0.96903056  0.68281786  0.18395420     0.02400
C1452       C  0.94795708  0.68378884  0.19069699    -0.15400
C1453       C  0.94030543  0.68915422  0.22567198    -0.10200
C1454       C  0.95430206  0.69406467  0.25426202     0.09100
C1455       C  0.00541536  0.68593208  0.20825440     0.10200
S1456       S  0.97707706  0.67543959  0.13816146    -0.24500
H1457       H  0.93744002  0.67989554  0.16857201     0.20400
S1458       S  0.94643931  0.70262881  0.29942040    -0.30200
H1459       H  0.98593298  0.69638739  0.26984069     0.10700
C1460       C  0.01756135  0.70354359  0.20703256     0.04000
C1461       C  0.03896256  0.70161783  0.20637574    -0.12500
C1462       C  0.04853266  0.68238930  0.20684784    -0.08200
C1463       C  0.03616170  0.66475901  0.20572195     0.07400
C1464       C  0.01484132  0.66672788  0.20693027    -0.13300
S1465       S  0.00575367  0.72848787  0.20676490    -0.30200
H1466       H  0.04827788  0.71515751  0.20703845     0.11700
S1467       S  0.04652590  0.63933006  0.20223195    -0.27300
H1468       H  0.00550265  0.65316932  0.20713349     0.08900
H1469       H  0.93010162  0.71468490  0.28610828     0.27300
H1470       H  0.02381410  0.73960742  0.20179822     0.22100
H1471       H  0.06247992  0.64475801  0.17827849     0.27400
H1472       H  0.99629220  0.68480178  0.13902758     0.16300
C1473       C  0.18027364  0.74897212  0.17083791    -0.11000
C1474       C  0.19573472  0.75006537  0.19788840     0.15500
C1475       C  0.19534813  0.73639790  0.22807681     0.02400
C1476       C  0.17940030  0.72240706  0.23094950    -0.15400
C1477       C  0.16391200  0.72121239  0.20386823    -0.10200
C1478       C  0.16471864  0.73447242  0.17300891     0.09100
C1479       C  0.21202906  0.76553683  0.19362443     0.10200
S1480       S  0.21483573  0.73580997  0.26360103    -0.24500
H1481       H  0.17910710  0.71234140  0.25474174     0.20400
S1482       S  0.14712585  0.73302920  0.13458550    -0.30200
H1483       H  0.18060179  0.75925287  0.14734568     0.10700
C1484       C  0.22597781  0.76456227  0.16409518     0.04000
C1485       C  0.24049067  0.77999126  0.15987338    -0.12500
C1486       C  0.24171794  0.79637991  0.18486761    -0.08200
C1487       C  0.22843832  0.79659316  0.21573023     0.07400
C1488       C  0.21354047  0.78147615  0.21930106    -0.13300
S1489       S  0.22558076  0.74341906  0.13212572    -0.30200
H1490       H  0.25072933  0.77942591  0.13646365     0.11700
S1491       S  0.23013347  0.81515233  0.25222186    -0.27300
H1492       H  0.20313856  0.78201567  0.24252931     0.08900
H1493       H  0.14663623  0.71161688  0.13415411     0.27300
H1494       H  0.24171255  0.74996769  0.10959359     0.22100
H1495       H  0.25163590  0.81469586  0.25364200     0.27400
H1496       H  0.23100683  0.74179373  0.24066800     0.16300
C1497       C  0.12307044  0.59050418  0.88141356    -0.11000
C1498       C  0.11041682  0.58169856  0.90813653     0.15500
C1499       C  0.09140457  0.57361888  0.89733246     0.02400
C1500       C  0.08501348  0.57537172  0.86061771    -0.15400
C1501       C  0.09721807  0.58480373  0.83387638    -0.10200
C1502       C  0.11664581  0.59225659  0.84441162     0.09100
C1503       C  0.11569762  0.58374292  0.94771453     0.10200
S1504       S  0.07419539  0.56158714  0.92937829    -0.24500
H1505       H  0.07021112  0.56935214  0.85291055     0.20400
S1506       S  0.13320175  0.60550579  0.81300244    -0.30200
H1507       H  0.13754191  0.59699539  0.88982718     0.10700
C1508       C  0.12975771  0.57060177  0.96558997     0.04000
C1509       C  0.13177984  0.57141212  0.00434690    -0.12500
C1510       C  0.11975515  0.58493982  0.02511396    -0.08200
C1511       C  0.10665918  0.59889170  0.00675841     0.07400
C1512       C  0.10474444  0.59810641  0.96837631    -0.13300
S1513       S  0.14376210  0.55180208  0.93938586    -0.30200
H1514       H  0.14172500  0.56070577  0.01864270     0.11700
S1515       S  0.09148215  0.61764533  0.03092838    -0.27300
H1516       H  0.09407310  0.60832331  0.95452350     0.08900
H1517       H  0.11739450  0.61694795  0.79625952     0.27300
H1518       H  0.15397985  0.54279794  0.96969718     0.22100
H1519       H  0.10537098  0.62035849  0.06034607     0.27400
H1520       H  0.08933354  0.55430156  0.95388316     0.16300
C1521       C  0.13185299  0.48723264  0.19533507    -0.11000
C1522       C  0.14936591  0.48039242  0.17672674     0.15500
C1523       C  0.16234330  0.49488389  0.16020783     0.02400
C1524       C  0.15659611  0.51551427  0.15991090    -0.15400
C1525       C  0.13814441  0.52206303  0.17585853    -0.10200
C1526       C  0.12630754  0.50781918  0.19563625     0.09100
C1527       C  0.15134940  0.45816310  0.16970930     0.10200
S1528       S  0.18580861  0.48787571  0.13740772    -0.24500
H1529       H  0.16599957  0.52630196  0.14515388     0.20400
S1530       S  0.10362640  0.51477456  0.22095640    -0.30200
H1531       H  0.12182676  0.47629526  0.20827186     0.10700
C1532       C  0.15203422  0.44375767  0.19876515     0.04000
C1533       C  0.14883526  0.42305334  0.19089064    -0.12500
C1534       C  0.14490061  0.41654371  0.15454432    -0.08200
C1535       C  0.14644775  0.43072195  0.12521545     0.07400
C1536       C  0.14933412  0.45131943  0.13312478    -0.13300
S1537       S  0.15621197  0.45184790  0.24594234    -0.30200
H1538       H  0.14802735  0.41214928  0.21332666     0.11700
S1539       S  0.14433069  0.42359169  0.07713534    -0.27300
H1540       H  0.14903977  0.46223891  0.11060033     0.08900
H1541       H  0.11070954  0.53412303  0.23133927     0.27300
H1542       H  0.15531811  0.43240404  0.26219270     0.22100
H1543       H  0.15232653  0.40380494  0.08192285     0.27400
H1544       H  0.18905674  0.46968448  0.15722729     0.16300
C1545       C  0.97118785  0.59973918  0.18509042    -0.11000
C1546       C  0.98152450  0.58494575  0.16426851     0.15500
C1547       C  0.97022277  0.57023507  0.14462247     0.02400
C1548       C  0.94892780  0.57025369  0.14705647    -0.15400
C1549       C  0.93852085  0.58492093  0.16809665    -0.10200
C1550       C  0.94983227  0.60014848  0.18663481     0.09100
C1551       C  0.00408666  0.58509481  0.16353170     0.10200
S1552       S  0.98205687  0.55109578  0.11590542    -0.24500
H1553       H  0.94041227  0.55863514  0.13248783     0.20400
S1554       S  0.93803981  0.62105225  0.21108484    -0.30200
H1555       H  0.97983535  0.61125686  0.19968268     0.10700
C1556       C  0.01475827  0.60014179  0.14389246     0.04000
C1557       C  0.03607978  0.59878791  0.14145294    -0.12500
C1558       C  0.04701648  0.58291015  0.15882579    -0.08200
C1559       C  0.03623294  0.56797971  0.17887490     0.07400
C1560       C  0.01493988  0.56936099  0.18128967    -0.13300
S1561       S  0.00121154  0.62059772  0.12067162    -0.30200
H1562       H  0.04430259  0.61018733  0.12591256     0.11700
S1563       S  0.04849630  0.54612279  0.19982124    -0.27300
H1564       H  0.00666439  0.55771466  0.19616479     0.08900
H1565       H  0.92190854  0.62371386  0.18555482     0.27300
H1566       H  0.01847369  0.63250737  0.11313378     0.22100
H1567       H  0.06222077  0.54278340  0.17056259     0.27400
H1568       H  0.99841459  0.56321321  0.10418702     0.16300
loop_ 
_geom_bond_atom_site_label_1 
_geom_bond_atom_site_label_2 
_geom_bond_distance 
_geom_bond_site_symmetry_2 
_ccdc_geom_bond_type 
O1            C4   1.267       .  A
O1           Cd6   2.509       .  S
C2           O11   1.260       .  A
C2            O7   1.264       .  A
C2           C15   1.461       .  S
O3            C9   1.262       .  A
O3           Cd6   2.404       .  S
C4           O12   1.262       .  A
C4         C1525   1.483       .  S
C5           O10   1.263       .  A
C5            O8   1.267       .  A
C5         C1558   1.476       .  S
Cd6          O13   2.495       .  S
Cd6          O12   2.440       .  S
Cd6          O11   2.456       .  S
Cd6           O7   2.474       .  S
Cd6          O10   2.441       .  S
Cd6           O8   2.480       .  S
C9           O13   1.268       .  A
C9         C1510   1.467       .  S
O14          C17   1.265       .  A
O14         Cd19   2.450       .  S
C15          O24   1.267       .  A
C15          O20   1.264       .  A
O16          C22   1.270       .  A
O16         Cd19   2.510       .  S
C17          O25   1.265       .  A
C17        C1429   1.475       .  S
C18          O23   1.268       .  A
C18          O21   1.265       .  A
C18        C1477   1.487       .  S
Cd19         O26   2.445       .  S
Cd19         O25   2.423       .  S
Cd19         O24   2.452       .  S
Cd19         O20   2.447       .  S
Cd19         O23   2.495       .  S
Cd19         O21   2.454       .  S
C22          O26   1.262       .  A
C22        C1462   1.487       .  S
O27          C30   1.266       .  A
O27         Cd32   2.459       .  S
C28          O37   1.266       .  A
C28          O33   1.265       .  A
C28          C43   1.466       .  S
O29          C35   1.270       .  A
O29         Cd32   2.512       .  S
C30          O38   1.264       .  A
C30        C1381   1.477       .  S
C31          O36   1.267       .  A
C31          O34   1.264       .  A
C31        C1486   1.493       .  S
Cd32         O39   2.455       .  S
Cd32         O38   2.444       .  S
Cd32         O37   2.446       .  S
Cd32         O33   2.486       .  S
Cd32         O36   2.506       .  S
Cd32         O34   2.461       .  S
C35          O39   1.264       .  A
C35        C1414   1.488       .  S
O40          C43   1.269       .  A
O40         Cd45   2.511       .  S
C41          O50   1.262       .  A
C41          O46   1.265       .  A
C41        C1357   1.483       .  S
O42          C48   1.267       .  A
O42         Cd45   2.462       .  S
C43          O51   1.260       .  A
C44          O49   1.267       .  A
C44          O47   1.268       .  A
C44        C1309   1.480       .  S
Cd45         O52   2.450       .  S
Cd45         O51   2.425       .  S
Cd45         O50   2.464       .  S
Cd45         O46   2.499       .  S
Cd45         O49   2.437       .  S
Cd45         O47   2.466       .  S
C48          O52   1.265       .  A
C48        C1342   1.479       .  S
O53          C56   1.266       .  A
O53         Cd58   2.505       .  S
C54          O63   1.262       .  A
C54          O59   1.270       .  A
C54          C80   1.464       .  S
O55          C61   1.268       .  A
O55         Cd58   2.454       .  S
C56          O64   1.262       .  A
C56        C1285   1.479       .  S
C57          O62   1.266       .  A
C57          O60   1.265       .  A
C57        C1261   1.473       .  S
Cd58         O65   2.442       .  S
Cd58         O64   2.437       .  S
Cd58         O63   2.416       .  S
Cd58         O59   2.493       .  S
Cd58         O62   2.450       .  S
Cd58         O60   2.449       .  S
C61          O65   1.265       .  A
C61        C1549   1.475       .  S
O66          C69   1.262       .  A
O66         Cd71   2.454       .  S
C67          O76   1.267       .  A
C67          O72   1.263       .  A
C67        C1189   1.473       .  S
O68          C74   1.267       .  A
O68         Cd71   2.497       .  S
C69          O77   1.267       .  A
C69          C93   1.463       .  S
C70          O75   1.265       .  A
C70          O73   1.262       .  A
C70        C1237   1.485       .  S
Cd71         O78   2.458       .  S
Cd71         O77   2.470       .  S
Cd71         O76   2.470       .  S
Cd71         O72   2.423       .  S
Cd71         O75   2.493       .  S
Cd71         O73   2.468       .  S
C74          O78   1.262       .  A
C74        C1213   1.489       .  S
O79          C82   1.265       .  A
O79         Cd84   2.464       .  S
C80          O89   1.264       .  A
C80          O85   1.264       .  A
O81          C87   1.265       .  A
O81         Cd84   2.477       .  S
C82          O90   1.265       .  A
C82        C1165   1.476       .  S
C83          O88   1.267       .  A
C83          O86   1.264       .  A
C83        C1453   1.484       .  S
Cd84         O91   2.466       .  S
Cd84         O90   2.451       .  S
Cd84         O89   2.444       .  S
Cd84         O85   2.494       .  S
Cd84         O88   2.487       .  S
Cd84         O86   2.459       .  S
C87          O91   1.265       .  A
C87        C1246   1.487       .  S
O92          C95   1.268       .  A
O92         Cd97   2.506       .  S
C93         O102   1.261       .  A
C93          O98   1.266       .  A
O94         C100   1.266       .  A
O94         Cd97   2.451       .  S
C95         O103   1.262       .  A
C95        C1366   1.489       .  S
C96         O101   1.265       .  A
C96          O99   1.267       .  A
C96        C1126   1.474       .  S
Cd97        O104   2.451       .  S
Cd97        O103   2.422       .  S
Cd97        O102   2.454       .  S
Cd97         O98   2.474       .  S
Cd97        O101   2.429       .  S
Cd97         O99   2.474       .  S
C100        O104   1.266       .  A
C100       C1150   1.476       .  S
O105        C108   1.265       .  A
O105       Cd110   2.497       .  S
C106        O115   1.265       .  A
C106        O111   1.268       .  A
C106       C1069   1.474       .  S
O107        C113   1.263       .  A
O107       Cd110   2.460       .  S
C108        O116   1.265       .  A
C108        C145   1.469       .  S
C109        O114   1.268       .  A
C109        O112   1.264       .  A
C109       C1102   1.488       .  S
Cd110       O117   2.490       .  S
Cd110       O116   2.455       .  S
Cd110       O115   2.432       .  S
Cd110       O111   2.459       .  S
Cd110       O114   2.501       .  S
Cd110       O112   2.457       .  S
C113        O117   1.267       .  A
C113       C1405   1.483       .  S
O118        C121   1.263       .  A
O118       Cd123   2.452       .  S
C119        O128   1.265       .  A
C119        O124   1.267       .  A
C119       C1030   1.473       .  S
O120        C126   1.265       .  A
O120       Cd123   2.506       .  S
C121        O129   1.267       .  A
C121        C132   1.465       .  S
C122        O127   1.267       .  A
C122        O125   1.263       .  A
C122       C1093   1.484       .  S
Cd123       O130   2.470       .  S
Cd123       O129   2.483       .  S
Cd123       O128   2.438       .  S
Cd123       O124   2.460       .  S
Cd123       O127   2.500       .  S
Cd123       O125   2.461       .  S
C126        O130   1.262       .  A
C126       C1045   1.485       .  S
O131        C134   1.268       .  A
O131       Cd136   2.514       .  S
C132        O141   1.263       .  A
C132        O137   1.263       .  A
O133        C139   1.262       .  A
O133       Cd136   2.435       .  S
C134        O142   1.262       .  A
C134       C1534   1.481       .  S
C135        O140   1.263       .  A
C135        O138   1.268       .  A
C135        C973   1.475       .  S
Cd136       O143   2.490       .  S
Cd136       O142   2.438       .  S
Cd136       O141   2.480       .  S
Cd136       O137   2.461       .  S
Cd136       O140   2.421       .  S
Cd136       O138   2.479       .  S
C139        O143   1.267       .  A
C139       C1006   1.481       .  S
O144        C147   1.268       .  A
O144       Cd149   2.513       .  S
C145        O154   1.262       .  A
C145        O150   1.268       .  A
O146        C152   1.263       .  A
O146       Cd149   2.471       .  S
C147        O155   1.262       .  A
C147        C949   1.479       .  S
C148        O153   1.265       .  A
C148        O151   1.268       .  A
C148        C934   1.475       .  S
Cd149       O156   2.475       .  S
Cd149       O155   2.431       .  S
Cd149       O154   2.442       .  S
Cd149       O150   2.506       .  S
Cd149       O153   2.427       .  S
Cd149       O151   2.481       .  S
C152        O156   1.264       .  A
C152       C1333   1.477       .  S
O157        C160   1.269       .  A
O157       Cd162   2.512       .  S
C158        O167   1.262       .  A
C158        O163   1.266       .  A
C158        C171   1.465       .  S
O159        C165   1.263       .  A
O159       Cd162   2.419       .  S
C160        O168   1.262       .  A
C160        C958   1.483       .  S
C161        O166   1.264       .  A
C161        O164   1.266       .  A
C161       C1141   1.474       .  S
Cd162       O169   2.484       .  S
Cd162       O168   2.432       .  S
Cd162       O167   2.461       .  S
Cd162       O163   2.473       .  S
Cd162       O166   2.433       .  S
Cd162       O164   2.455       .  S
C165        O169   1.269       .  A
C165        C910   1.478       .  S
O170        C173   1.264       .  A
O170       Cd175   2.442       .  S
C171        O180   1.266       .  A
C171        O176   1.262       .  A
O172        C178   1.268       .  A
O172       Cd175   2.499       .  S
C173        O181   1.265       .  A
C173        C862   1.472       .  S
C174        O179   1.265       .  A
C174        O177   1.264       .  A
C174        C886   1.490       .  S
Cd175       O182   2.458       .  S
Cd175       O181   2.455       .  S
Cd175       O180   2.475       .  S
Cd175       O176   2.460       .  S
Cd175       O179   2.479       .  S
Cd175       O177   2.485       .  S
C178        O182   1.265       .  A
C178       C1222   1.490       .  S
O183        C186   1.264       .  A
O183       Cd188   2.424       .  S
C184        O193   1.268       .  A
C184        O189   1.264       .  A
C184        C197   1.467       .  S
O185        C191   1.267       .  A
O185       Cd188   2.520       .  S
C186        O194   1.266       .  A
C186        C829   1.470       .  S
C187        O192   1.265       .  A
C187        O190   1.265       .  A
C187        C877   1.489       .  S
Cd188       O195   2.455       .  S
Cd188       O194   2.466       .  S
Cd188       O193   2.466       .  S
Cd188       O189   2.465       .  S
Cd188       O192   2.483       .  S
Cd188       O190   2.493       .  S
C191        O195   1.261       .  A
C191       C1054   1.492       .  S
O196        C199   1.269       .  A
O196       Cd201   2.511       .  S
C197        O206   1.263       .  A
C197        O202   1.270       .  A
O198        C204   1.266       .  A
O198       Cd201   2.435       .  S
C199        O207   1.263       .  A
C199       C1294   1.485       .  S
C200        O205   1.266       .  A
C200        O203   1.265       .  A
C200        C997   1.473       .  S
Cd201       O208   2.473       .  S
Cd201       O207   2.424       .  S
Cd201       O206   2.444       .  S
Cd201       O202   2.483       .  S
Cd201       O205   2.463       .  S
Cd201       O203   2.457       .  S
C204        O208   1.267       .  A
C204        C805   1.479       .  S
O209        C212   1.264       .  A
O209       Cd214   2.441       .  S
C210        O219   1.266       .  A
C210        O215   1.263       .  A
C210        C249   1.466       .  S
O211        C217   1.265       .  A
O211       Cd214   2.490       .  S
C212        O220   1.267       .  A
C212       C1021   1.483       .  S
C213        O218   1.265       .  A
C213        O216   1.264       .  A
C213        C781   1.489       .  S
Cd214       O221   2.468       .  S
Cd214       O220   2.466       .  S
Cd214       O219   2.459       .  S
Cd214       O215   2.482       .  S
Cd214       O218   2.481       .  S
Cd214       O216   2.484       .  S
C217        O221   1.265       .  A
C217        C757   1.488       .  S
O222        C225   1.265       .  A
O222       Cd227   2.453       .  S
C223        O232   1.267       .  A
C223        O228   1.263       .  A
C223        C236   1.466       .  S
O224        C230   1.267       .  A
O224       Cd227   2.503       .  S
C225        O233   1.266       .  A
C225       C1078   1.476       .  S
C226        O231   1.267       .  A
C226        O229   1.263       .  A
C226        C790   1.489       .  S
Cd227       O234   2.455       .  S
Cd227       O233   2.440       .  S
Cd227       O232   2.469       .  S
Cd227       O228   2.468       .  S
Cd227       O231   2.479       .  S
Cd227       O229   2.468       .  S
C230        O234   1.262       .  A
C230        C733   1.485       .  S
O235        C238   1.265       .  A
O235       Cd240   2.473       .  S
C236        O245   1.261       .  A
C236        O241   1.266       .  A
O237        C243   1.265       .  A
O237       Cd240   2.420       .  S
C238        O246   1.266       .  A
C238        C709   1.491       .  S
C239        O244   1.263       .  A
C239        O242   1.265       .  A
C239        C694   1.477       .  S
Cd240       O247   2.473       .  S
Cd240       O246   2.458       .  S
Cd240       O245   2.458       .  S
Cd240       O241   2.488       .  S
Cd240       O244   2.454       .  S
Cd240       O242   2.465       .  S
C243        O247   1.269       .  A
C243        C925   1.476       .  S
O248        C251   1.264       .  A
O248       Cd253   2.508       .  S
C249        O258   1.262       .  A
C249        O254   1.268       .  A
O250        C256   1.266       .  A
O250       Cd253   2.454       .  S
C251        O259   1.262       .  A
C251        C661   1.486       .  S
C252        O257   1.265       .  A
C252        O255   1.265       .  A
C252        C646   1.486       .  S
Cd253       O260   2.473       .  S
Cd253       O259   2.463       .  S
Cd253       O258   2.439       .  S
Cd253       O254   2.500       .  S
Cd253       O257   2.483       .  S
Cd253       O255   2.461       .  S
C256        O260   1.266       .  A
C256        C982   1.482       .  S
O261        C264   1.265       .  A
O261       Cd266   2.415       .  S
C262        O271   1.266       .  A
C262        O267   1.264       .  A
C262        C288   1.462       .  S
O263        C269   1.267       .  A
O263       Cd266   2.508       .  S
C264        O272   1.266       .  A
C264       C1438   1.465       .  S
C265        O270   1.266       .  A
C265        O268   1.265       .  A
C265        C589   1.482       .  S
Cd266       O273   2.453       .  S
Cd266       O272   2.445       .  S
Cd266       O271   2.450       .  S
Cd266       O267   2.459       .  S
Cd266       O270   2.483       .  S
Cd266       O268   2.470       .  S
C269        O273   1.259       .  A
C269        C613   1.494       .  S
O274        C277   1.263       .  A
O274       Cd279   2.447       .  S
C275        O284   1.268       .  A
C275        O280   1.263       .  A
C275        C301   1.469       .  S
O276        C282   1.264       .  A
O276       Cd279   2.492       .  S
C277        O285   1.266       .  A
C277       C1390   1.478       .  S
C278        O283   1.266       .  A
C278        O281   1.263       .  A
C278        C742   1.488       .  S
Cd279       O286   2.479       .  S
Cd279       O285   2.470       .  S
Cd279       O284   2.492       .  S
Cd279       O280   2.456       .  S
Cd279       O283   2.497       .  S
Cd279       O281   2.471       .  S
C282        O286   1.264       .  A
C282        C622   1.488       .  S
O287        C290   1.268       .  A
O287       Cd292   2.517       .  S
C288        O297   1.261       .  A
C288        O293   1.266       .  A
O289        C295   1.266       .  A
O289       Cd292   2.458       .  S
C290        O298   1.262       .  A
C290        C670   1.488       .  S
C291        O296   1.265       .  A
C291        O294   1.268       .  A
C291       C1501   1.478       .  S
Cd292       O299   2.434       .  S
Cd292       O298   2.418       .  S
Cd292       O297   2.444       .  S
Cd292       O293   2.481       .  S
Cd292       O296   2.413       .  S
Cd292       O294   2.487       .  S
C295        O299   1.265       .  A
C295        C565   1.477       .  S
O300        C303   1.269       .  A
O300       Cd305   2.534       .  S
C301        O310   1.263       .  A
C301        O306   1.265       .  A
O302        C308   1.264       .  A
O302       Cd305   2.460       .  S
C303        O311   1.263       .  A
C303        C550   1.485       .  S
C304        O309   1.266       .  A
C304        O307   1.268       .  A
C304       C1318   1.472       .  S
Cd305       O312   2.463       .  S
Cd305       O311   2.439       .  S
Cd305       O310   2.484       .  S
Cd305       O306   2.473       .  S
Cd305       O309   2.435       .  S
Cd305       O307   2.460       .  S
C308        O312   1.265       .  A
C308        C685   1.477       .  S
O313        C316   1.271       .  A
O313       Cd318   2.517       .  S
C314        O323   1.261       .  A
C314        O319   1.269       .  A
C314        C340   1.465       .  S
O315        C321   1.265       .  A
O315       Cd318   2.433       .  S
C316        O324   1.262       .  A
C316        C541   1.482       .  S
C317        O322   1.268       .  A
C317        O320   1.264       .  A
C317        C526   1.476       .  S
Cd318       O325   2.474       .  S
Cd318       O324   2.419       .  S
Cd318       O323   2.429       .  S
Cd318       O319   2.497       .  S
Cd318       O322   2.443       .  S
Cd318       O320   2.424       .  S
C321        O325   1.268       .  A
C321       C1117   1.479       .  S
O326        C329   1.265       .  A
O326       Cd331   2.447       .  S
C327        O336   1.266       .  A
C327        O332   1.263       .  A
C327        C353   1.464       .  S
O328        C334   1.268       .  A
O328       Cd331   2.491       .  S
C329        O337   1.265       .  A
C329       C1174   1.470       .  S
C330        O335   1.266       .  A
C330        O333   1.263       .  A
C330        C502   1.480       .  S
Cd331       O338   2.451       .  S
Cd331       O337   2.432       .  S
Cd331       O336   2.460       .  S
Cd331       O332   2.466       .  S
Cd331       O335   2.494       .  S
Cd331       O333   2.441       .  S
C334        O338   1.262       .  A
C334        C598   1.488       .  S
O339        C342   1.265       .  A
O339       Cd344   2.429       .  S
C340        O349   1.266       .  A
C340        O345   1.264       .  A
O341        C347   1.267       .  A
O341       Cd344   2.502       .  S
C342        O350   1.265       .  A
C342       C1198   1.470       .  S
C343        O348   1.263       .  A
C343        O346   1.267       .  A
C343        C493   1.482       .  S
Cd344       O351   2.441       .  S
Cd344       O350   2.443       .  S
Cd344       O349   2.450       .  S
Cd344       O345   2.478       .  S
Cd344       O348   2.453       .  S
Cd344       O346   2.482       .  S
C347        O351   1.263       .  A
C347        C469   1.482       .  S
O352        C355   1.267       .  A
O352       Cd357   2.495       .  S
C353        O362   1.260       .  A
C353        O358   1.266       .  A
O354        C360   1.266       .  A
O354       Cd357   2.441       .  S
C355        O363   1.263       .  A
C355        C445   1.478       .  S
C356        O361   1.265       .  A
C356        O359   1.265       .  A
C356        C574   1.475       .  S
Cd357       O364   2.466       .  S
Cd357       O363   2.442       .  S
Cd357       O362   2.449       .  S
Cd357       O358   2.487       .  S
Cd357       O361   2.446       .  S
Cd357       O359   2.454       .  S
C360        O364   1.266       .  A
C360       C1270   1.488       .  S
O365        C368   1.268       .  A
O365       Cd370   2.515       .  S
C366        O375   1.260       .  A
C366        O371   1.267       .  A
C366        C392   1.461       .  S
O367        C373   1.262       .  A
O367       Cd370   2.442       .  S
C368        O376   1.262       .  A
C368        C718   1.488       .  S
C369        O374   1.265       .  A
C369        O372   1.268       .  A
C369        C901   1.472       .  S
Cd370       O377   2.473       .  S
Cd370       O376   2.426       .  S
Cd370       O375   2.429       .  S
Cd370       O371   2.485       .  S
Cd370       O374   2.406       .  S
Cd370       O372   2.474       .  S
C373        O377   1.265       .  A
C373        C517   1.475       .  S
O378        C381   1.267       .  A
O378       Cd383   2.473       .  S
C379        O388   1.266       .  A
C379        O384   1.266       .  A
C379        C405   1.469       .  S
O380        C386   1.267       .  A
O380       Cd383   2.472       .  S
C381        O389   1.263       .  A
C381        C838   1.474       .  S
C382        O387   1.268       .  A
C382        O385   1.263       .  A
C382        C766   1.485       .  S
Cd383       O390   2.479       .  S
Cd383       O389   2.423       .  S
Cd383       O388   2.445       .  S
Cd383       O384   2.499       .  S
Cd383       O387   2.506       .  S
Cd383       O385   2.445       .  S
C386        O390   1.265       .  A
C386        C421   1.495       .  S
O391        C394   1.268       .  A
O391       Cd396   2.441       .  S
C392        O401   1.265       .  A
C392        O397   1.264       .  A
O393        C399   1.266       .  A
O393       Cd396   2.476       .  S
C394        O402   1.265       .  A
C394        C853   1.471       .  S
C395        O400   1.268       .  A
C395        O398   1.262       .  A
C395        C478   1.480       .  S
Cd396       O403   2.463       .  S
Cd396       O402   2.422       .  S
Cd396       O401   2.445       .  S
Cd396       O397   2.471       .  S
Cd396       O400   2.496       .  S
Cd396       O398   2.441       .  S
C399        O403   1.265       .  A
C399        C430   1.486       .  S
O404        C407   1.267       .  A
O404       Cd409   2.511       .  S
C405        O414   1.260       .  A
C405        O410   1.267       .  A
O406        C412   1.265       .  A
O406       Cd409   2.471       .  S
C407        O415   1.263       .  A
C407        C454   1.491       .  S
C408        O413   1.266       .  A
C408        O411   1.266       .  A
C408        C814   1.480       .  S
Cd409       O416   2.459       .  S
Cd409       O415   2.430       .  S
Cd409       O414   2.438       .  S
Cd409       O410   2.520       .  S
Cd409       O413   2.443       .  S
Cd409       O411   2.467       .  S
C412        O416   1.264       .  A
C412        C637   1.485       .  S
C417        C418   1.401       .  A
C417        C422   1.401       .  A
C417        H427   1.084       .  S
C418        C423   1.484       .  S
C418        C419   1.411       .  A
C419        C420   1.401       .  A
C419        S424   1.805       .  S
C420        C421   1.409       .  A
C420        H425   1.083       .  S
C421        C422   1.421       .  A
C422        S426   1.800       .  S
C423        C428   1.409       .  A
C423        C432   1.402       .  A
S424        H440   1.405       .  S
S426        H437   1.408       .  S
C428        C429   1.404       .  A
C428        S433   1.806       .  S
C429        C430   1.408       .  A
C429        H434   1.083       .  S
C430        C431   1.416       .  A
C431        C432   1.401       .  A
C431        S435   1.801       .  S
C432        H436   1.084       .  S
S433        H438   1.407       .  S
S435        H439   1.408       .  S
C441        C442   1.402       .  A
C441        C446   1.401       .  A
C441        H451   1.084       .  S
C442        C447   1.482       .  S
C442        C443   1.411       .  A
C443        C444   1.399       .  A
C443        S448   1.804       .  S
C444        C445   1.404       .  A
C444        H449   1.084       .  S
C445        C446   1.415       .  A
C446        S450   1.803       .  S
C447        C452   1.408       .  A
C447        C456   1.402       .  A
S448        H464   1.406       .  S
S450        H461   1.407       .  S
C452        C453   1.398       .  A
C452        S457   1.810       .  S
C453        C454   1.408       .  A
C453        H458   1.082       .  S
C454        C455   1.419       .  A
C455        C456   1.406       .  A
C455        S459   1.800       .  S
C456        H460   1.083       .  S
S457        H462   1.407       .  S
S459        H463   1.407       .  S
C465        C466   1.401       .  A
C465        C470   1.397       .  A
C465        H475   1.084       .  S
C466        C471   1.483   1_565  S
C466        C467   1.414       .  A
C467        C468   1.403       .  A
C467        S472   1.804       .  S
C468        C469   1.405       .  A
C468        H473   1.084       .  S
C469        C470   1.415       .  A
C470        S474   1.802       .  S
C471        C476   1.411       .  A
C471        C480   1.401       .  A
S472        H488   1.406       .  S
S474        H485   1.407       .  S
C476        C477   1.405       .  A
C476        S481   1.806       .  S
C477        C478   1.405       .  A
C477        H482   1.083       .  S
C478        C479   1.416       .  A
C479        C480   1.398       .  A
C479        S483   1.804       .  S
C480        H484   1.084       .  S
S481        H486   1.407       .  S
S483        H487   1.407       .  S
C489        C490   1.400       .  A
C489        C494   1.399       .  A
C489        H499   1.084       .  S
C490        C495   1.482       .  S
C490        C491   1.413       .  A
C491        C492   1.400       .  A
C491        S496   1.804       .  S
C492        C493   1.404       .  A
C492        H497   1.084       .  S
C493        C494   1.418       .  A
C494        S498   1.803       .  S
C495        C500   1.410       .  A
C495        C504   1.401       .  A
S496        H512   1.406       .  S
S498        H509   1.407       .  S
C500        C501   1.406       .  A
C500        S505   1.806       .  S
C501        C502   1.406       .  A
C501        H506   1.083       .  S
C502        C503   1.414       .  A
C503        C504   1.397       .  A
C503        S507   1.803       .  S
C504        H508   1.084       .  S
S505        H510   1.407       .  S
S507        H511   1.408       .  S
C513        C514   1.401   1_545  A
C513        C518   1.396       .  A
C513        H523   1.084   1_545  S
C514        C519   1.474       .  S
C514        C515   1.411   1_565  A
C515        C516   1.397       .  A
C515        S520   1.805   1_545  S
C516        C517   1.404       .  A
C516        H521   1.084       .  S
C517        C518   1.415       .  A
C518        S522   1.803       .  S
C519        C524   1.409       .  A
C519        C528   1.399       .  A
S520        H536   1.405       .  S
S522        H533   1.407       .  S
C524        C525   1.399       .  A
C524        S529   1.808       .  S
C525        C526   1.405       .  A
C525        H530   1.083       .  S
C526        C527   1.418       .  A
C527        C528   1.396       .  A
C527        S531   1.803       .  S
C528        H532   1.084       .  S
S529        H534   1.407       .  S
S531        H535   1.408       .  S
C537        C538   1.403       .  A
C537        C542   1.399       .  A
C537        H547   1.084       .  S
C538        C543   1.489       .  S
C538        C539   1.414       .  A
C539        C540   1.404       .  A
C539        S544   1.802       .  S
C540        C541   1.404       .  A
C540        H545   1.084       .  S
C541        C542   1.416       .  A
C542        S546   1.805       .  S
C543        C548   1.412       .  A
C543        C552   1.401       .  A
S544        H560   1.406       .  S
S546        H557   1.407       .  S
C548        C549   1.411       .  A
C548        S553   1.805       .  S
C549        C550   1.406       .  A
C549        H554   1.082       .  S
C550        C551   1.415       .  A
C551        C552   1.398       .  A
C551        S555   1.804       .  S
C552        H556   1.084       .  S
S553        H558   1.407       .  S
S555        H559   1.407       .  S
C561        C562   1.398       .  A
C561        C566   1.396       .  A
C561        H571   1.084       .  S
C562        C567   1.471       .  S
C562        C563   1.410       .  A
C563        C564   1.398       .  A
C563        S568   1.804       .  S
C564        C565   1.405   1_655  A
C564        H569   1.084   1_655  S
C565        C566   1.417   1_455  A
C566        S570   1.802   1_655  S
C567        C572   1.407       .  A
C567        C576   1.400       .  A
S568        H584   1.405       .  S
S570        H581   1.408       .  S
C572        C573   1.400       .  A
C572        S577   1.806       .  S
C573        C574   1.405       .  A
C573        H578   1.083       .  S
C574        C575   1.414       .  A
C575        C576   1.397       .  A
C575        S579   1.803       .  S
C576        H580   1.084       .  S
S577        H582   1.405       .  S
S579        H583   1.408       .  S
C585        C586   1.403       .  A
C585        C590   1.401       .  A
C585        H595   1.084       .  S
C586        C591   1.482       .  S
C586        C587   1.413       .  A
C587        C588   1.401   1_655  A
C587        S592   1.805       .  S
C588        C589   1.405       .  A
C588        H593   1.084       .  S
C589        C590   1.415   1_455  A
C590        S594   1.802   1_655  S
C591        C596   1.408       .  A
C591        C600   1.400       .  A
S592        H608   1.404       .  S
S594        H605   1.407       .  S
C596        C597   1.405       .  A
C596        S601   1.806       .  S
C597        C598   1.407       .  A
C597        H602   1.082       .  S
C598        C599   1.420       .  A
C599        C600   1.399       .  A
C599        S603   1.803       .  S
C600        H604   1.084       .  S
S601        H606   1.407       .  S
S603        H607   1.408       .  S
C609        C610   1.401       .  A
C609        C614   1.402       .  A
C609        H619   1.084       .  S
C610        C615   1.487       .  S
C610        C611   1.411       .  A
C611        C612   1.401       .  A
C611        S616   1.803       .  S
C612        C613   1.407       .  A
C612        H617   1.083       .  S
C613        C614   1.423       .  A
C614        S618   1.802       .  S
C615        C620   1.409       .  A
C615        C624   1.403       .  A
S616        H632   1.406       .  S
S618        H629   1.408       .  S
C620        C621   1.404       .  A
C620        S625   1.807       .  S
C621        C622   1.407       .  A
C621        H626   1.082       .  S
C622        C623   1.417       .  A
C623        C624   1.402       .  A
C623        S627   1.802       .  S
C624        H628   1.084       .  S
S625        H630   1.406       .  S
S627        H631   1.407       .  S
C633        C634   1.402       .  A
C633        C638   1.399       .  A
C633        H643   1.084       .  S
C634        C639   1.484       .  S
C634        C635   1.412       .  A
C635        C636   1.401       .  A
C635        S640   1.803       .  S
C636        C637   1.407       .  A
C636        H641   1.084       .  S
C637        C638   1.417       .  A
C638        S642   1.803       .  S
C639        C644   1.409       .  A
C639        C648   1.403       .  A
S640        H656   1.406       .  S
S642        H653   1.407       .  S
C644        C645   1.402       .  A
C644        S649   1.807       .  S
C645        C646   1.406   1_655  A
C645        H650   1.083   1_655  S
C646        C647   1.417   1_455  A
C647        C648   1.402       .  A
C647        S651   1.799   1_655  S
C648        H652   1.084       .  S
S649        H654   1.406       .  S
S651        H655   1.407       .  S
C657        C658   1.401       .  A
C657        C662   1.402       .  A
C657        H667   1.084       .  S
C658        C663   1.482       .  S
C658        C659   1.410       .  A
C659        C660   1.400       .  A
C659        S664   1.803       .  S
C660        C661   1.407       .  A
C660        H665   1.084       .  S
C661        C662   1.418       .  A
C662        S666   1.800       .  S
C663        C668   1.408       .  A
C663        C672   1.403       .  A
S664        H680   1.406       .  S
S666        H677   1.408       .  S
C668        C669   1.397       .  A
C668        S673   1.810       .  S
C669        C670   1.407       .  A
C669        H674   1.082       .  S
C670        C671   1.417       .  A
C671        C672   1.407       .  A
C671        S675   1.800       .  S
C672        H676   1.083       .  S
S673        H678   1.407       .  S
S675        H679   1.407       .  S
C681        C682   1.402       .  A
C681        C686   1.399       .  A
C681        H691   1.084       .  S
C682        C687   1.480       .  S
C682        C683   1.413       .  A
C683        C684   1.398       .  A
C683        S688   1.805       .  S
C684        C685   1.403       .  A
C684        H689   1.084       .  S
C685        C686   1.415       .  A
C686        S690   1.802       .  S
C687        C692   1.409   1_565  A
C687        C696   1.402       .  A
S688        H704   1.406       .  S
S690        H701   1.407       .  S
C692        C693   1.402       .  A
C692        S697   1.807   1_545  S
C693        C694   1.405       .  A
C693        H698   1.083       .  S
C694        C695   1.414       .  A
C695        C696   1.398   1_545  A
C695        S699   1.803       .  S
C696        H700   1.084       .  S
S697        H702   1.407   1_565  S
S699        H703   1.407       .  S
C705        C706   1.401       .  A
C705        C710   1.403       .  A
C705        H715   1.084       .  S
C706        C711   1.481       .  S
C706        C707   1.409       .  A
C707        C708   1.398       .  A
C707        S712   1.803       .  S
C708        C709   1.408       .  A
C708        H713   1.083       .  S
C709        C710   1.420       .  A
C710        S714   1.801       .  S
C711        C716   1.407       .  A
C711        C720   1.403       .  A
S712        H728   1.404       .  S
S714        H725   1.407       .  S
C716        C717   1.399       .  A
C716        S721   1.809       .  S
C717        C718   1.407       .  A
C717        H722   1.082       .  S
C718        C719   1.418       .  A
C719        C720   1.405       .  A
C719        S723   1.800       .  S
C720        H724   1.083       .  S
S721        H726   1.407       .  S
S723        H727   1.407       .  S
C729        C730   1.403       .  A
C729        C734   1.398   1_565  A
C729        H739   1.084       .  S
C730        C735   1.487       .  S
C730        C731   1.414   1_565  A
C731        C732   1.403       .  A
C731        S736   1.803   1_545  S
C732        C733   1.406       .  A
C732        H737   1.084       .  S
C733        C734   1.417       .  A
C734        S738   1.803       .  S
C735        C740   1.411       .  A
C735        C744   1.403       .  A
S736        H752   1.406       .  S
S738        H749   1.407       .  S
C740        C741   1.405       .  A
C740        S745   1.807       .  S
C741        C742   1.407       .  A
C741        H746   1.083       .  S
C742        C743   1.417       .  A
C743        C744   1.401       .  A
C743        S747   1.802       .  S
C744        H748   1.084       .  S
S745        H750   1.406       .  S
S747        H751   1.407       .  S
C753        C754   1.403       .  A
C753        C758   1.402       .  A
C753        H763   1.085       .  S
C754        C759   1.485       .  S
C754        C755   1.413       .  A
C755        C756   1.400       .  A
C755        S760   1.805       .  S
C756        C757   1.406   1_655  A
C756        H761   1.084       .  S
C757        C758   1.418   1_455  A
C758        S762   1.802   1_655  S
C759        C764   1.411       .  A
C759        C768   1.400       .  A
S760        H776   1.405       .  S
S762        H773   1.408       .  S
C764        C765   1.408       .  A
C764        S769   1.806       .  S
C765        C766   1.407       .  A
C765        H770   1.083       .  S
C766        C767   1.416       .  A
C767        C768   1.397       .  A
C767        S771   1.801       .  S
C768        H772   1.083       .  S
S769        H774   1.407       .  S
S771        H775   1.408       .  S
C777        C778   1.403       .  A
C777        C782   1.402       .  A
C777        H787   1.084       .  S
C778        C783   1.484       .  S
C778        C779   1.411       .  A
C779        C780   1.400       .  A
C779        S784   1.804       .  S
C780        C781   1.407       .  A
C780        H785   1.084       .  S
C781        C782   1.417       .  A
C782        S786   1.802       .  S
C783        C788   1.408       .  A
C783        C792   1.401       .  A
S784        H800   1.406       .  S
S786        H797   1.407       .  S
C788        C789   1.403       .  A
C788        S793   1.806       .  S
C789        C790   1.407       .  A
C789        H794   1.082       .  S
C790        C791   1.420       .  A
C791        C792   1.402       .  A
C791        S795   1.802       .  S
C792        H796   1.084       .  S
S793        H798   1.407       .  S
S795        H799   1.407       .  S
C801        C802   1.402       .  A
C801        C806   1.399   1_556  A
C801        H811   1.083       .  S
C802        C807   1.479       .  S
C802        C803   1.411   1_556  A
C803        C804   1.401       .  A
C803        S808   1.804       .  S
C804        C805   1.406       .  A
C804        H809   1.084       .  S
C805        C806   1.413       .  A
C806        S810   1.809       .  S
C807        C812   1.411       .  A
C807        C816   1.401       .  A
S808        H824   1.406   1_554  S
S810        H821   1.407   1_554  S
C812        C813   1.401       .  A
C812        S817   1.808       .  S
C813        C814   1.404       .  A
C813        H818   1.083       .  S
C814        C815   1.416       .  A
C815        C816   1.399       .  A
C815        S819   1.800       .  S
C816        H820   1.084       .  S
S817        H822   1.407       .  S
S819        H823   1.407       .  S
C825        C826   1.399       .  A
C825        C830   1.395       .  A
C825        H835   1.084       .  S
C826        C831   1.472       .  S
C826        C827   1.412       .  A
C827        C828   1.398       .  A
C827        S832   1.805       .  S
C828        C829   1.403       .  A
C828        H833   1.084       .  S
C829        C830   1.413       .  A
C830        S834   1.804       .  S
C831        C836   1.406       .  A
C831        C840   1.402       .  A
S832        H848   1.406       .  S
S834        H845   1.408       .  S
C836        C837   1.397       .  A
C836        S841   1.808       .  S
C837        C838   1.405       .  A
C837        H842   1.083       .  S
C838        C839   1.414       .  A
C839        C840   1.399       .  A
C839        S843   1.802       .  S
C840        H844   1.084       .  S
S841        H846   1.407       .  S
S843        H847   1.407       .  S
C849        C850   1.399       .  A
C849        C854   1.396       .  A
C849        H859   1.084       .  S
C850        C855   1.469       .  S
C850        C851   1.410       .  A
C851        C852   1.395       .  A
C851        S856   1.804       .  S
C852        C853   1.403       .  A
C852        H857   1.084       .  S
C853        C854   1.415       .  A
C854        S858   1.803       .  S
C855        C860   1.407       .  A
C855        C864   1.399       .  A
S856        H872   1.405       .  S
S858        H869   1.407       .  S
C860        C861   1.400   1_556  A
C860        S865   1.807       .  S
C861        C862   1.404       .  A
C861        H866   1.083       .  S
C862        C863   1.414       .  A
C863        C864   1.396   1_554  A
C863        S867   1.803       .  S
C864        H868   1.084       .  S
S865        H870   1.407       .  S
S867        H871   1.408       .  S
C873        C874   1.403       .  A
C873        C878   1.404       .  A
C873        H883   1.084       .  S
C874        C879   1.484       .  S
C874        C875   1.410       .  A
C875        C876   1.401       .  A
C875        S880   1.804       .  S
C876        C877   1.407       .  A
C876        H881   1.084       .  S
C877        C878   1.417       .  A
C878        S882   1.802       .  S
C879        C884   1.409       .  A
C879        C888   1.400       .  A
S880        H896   1.405       .  S
S882        H893   1.407       .  S
C884        C885   1.407       .  A
C884        S889   1.806       .  S
C885        C886   1.409       .  A
C885        H890   1.083       .  S
C886        C887   1.418       .  A
C887        C888   1.400       .  A
C887        S891   1.802       .  S
C888        H892   1.084       .  S
S889        H894   1.407       .  S
S891        H895   1.408       .  S
C897        C898   1.401       .  A
C897        C902   1.400       .  A
C897        H907   1.084       .  S
C898        C903   1.473       .  S
C898        C899   1.410       .  A
C899        C900   1.394       .  A
C899        S904   1.804       .  S
C900        C901   1.402       .  A
C900        H905   1.084       .  S
C901        C902   1.415       .  A
C902        S906   1.801       .  S
C903        C908   1.406       .  A
C903        C912   1.399       .  A
S904        H920   1.405       .  S
S906        H917   1.406       .  S
C908        C909   1.404       .  A
C908        S913   1.805       .  S
C909        C910   1.407       .  A
C909        H914   1.083       .  S
C910        C911   1.416       .  A
C911        C912   1.395       .  A
C911        S915   1.804       .  S
C912        H916   1.084       .  S
S913        H918   1.407       .  S
S915        H919   1.407       .  S
C921        C922   1.402       .  A
C921        C926   1.397       .  A
C921        H931   1.084       .  S
C922        C927   1.481       .  S
C922        C923   1.414       .  A
C923        C924   1.399       .  A
C923        S928   1.804       .  S
C924        C925   1.403       .  A
C924        H929   1.084       .  S
C925        C926   1.414       .  A
C926        S930   1.804       .  S
C927        C932   1.411       .  A
C927        C936   1.401       .  A
S928        H944   1.406       .  S
S930        H941   1.408       .  S
C932        C933   1.405       .  A
C932        S937   1.806       .  S
C933        C934   1.404       .  A
C933        H938   1.083       .  S
C934        C935   1.413       .  A
C935        C936   1.395       .  A
C935        S939   1.804       .  S
C936        H940   1.084       .  S
S937        H942   1.407       .  S
S939        H943   1.407       .  S
C945        C946   1.402       .  A
C945        C950   1.396       .  A
C945        H955   1.084       .  S
C946        C951   1.485       .  S
C946        C947   1.414       .  A
C947        C948   1.404       .  A
C947        S952   1.803       .  S
C948        C949   1.405       .  A
C948        H953   1.084       .  S
C949        C950   1.414       .  A
C950        S954   1.804       .  S
C951        C956   1.411       .  A
C951        C960   1.401       .  A
S952        H968   1.406       .  S
S954        H965   1.407       .  S
C956        C957   1.407       .  A
C956        S961   1.806       .  S
C957        C958   1.405       .  A
C957        H962   1.083       .  S
C958        C959   1.416       .  A
C959        C960   1.398       .  A
C959        S963   1.804       .  S
C960        H964   1.084       .  S
S961        H966   1.407       .  S
S963        H967   1.407       .  S
C969        C970   1.402       .  A
C969        C974   1.398       .  A
C969        H979   1.084       .  S
C970        C975   1.479       .  S
C970        C971   1.411       .  A
C971        C972   1.399   1_556  A
C971        S976   1.803       .  S
C972        C973   1.403       .  A
C972        H977   1.084       .  S
C973        C974   1.414   1_554  A
C974        S978   1.804   1_556  S
C975        C980   1.407       .  A
C975        C984   1.401       .  A
S976        H992   1.406       .  S
S978        H989   1.408       .  S
C980        C981   1.405       .  A
C980        S985   1.806       .  S
C981        C982   1.408       .  A
C981        H986   1.083       .  S
C982        C983   1.415       .  A
C983        C984   1.397       .  A
C983        S987   1.802       .  S
C984        H988   1.084       .  S
S985        H990   1.407       .  S
S987        H991   1.407       .  S
C993        C994   1.403       .  A
C993        C998   1.399       .  A
C993       H1003   1.084       .  S
C994        C999   1.480   1_655  S
C994        C995   1.413       .  A
C995        C996   1.399       .  A
C995       S1000   1.805       .  S
C996        C997   1.402       .  A
C996       H1001   1.084       .  S
C997        C998   1.413       .  A
C998       S1002   1.804       .  S
C999       C1004   1.410       .  A
C999       C1008   1.400       .  A
S1000      H1016   1.406       .  S
S1002      H1013   1.407       .  S
C1004      C1005   1.405       .  A
C1004      S1009   1.806       .  S
C1005      C1006   1.406       .  A
C1005      H1010   1.083       .  S
C1006      C1007   1.416       .  A
C1007      C1008   1.396       .  A
C1007      S1011   1.803       .  S
C1008      H1012   1.084       .  S
S1009      H1014   1.407       .  S
S1011      H1015   1.408       .  S
C1017      C1018   1.399       .  A
C1017      C1022   1.398       .  A
C1017      H1027   1.084       .  S
C1018      C1023   1.476       .  S
C1018      C1019   1.411       .  A
C1019      C1020   1.398       .  A
C1019      S1024   1.805       .  S
C1020      C1021   1.406       .  A
C1020      H1025   1.084       .  S
C1021      C1022   1.419       .  A
C1022      S1026   1.802       .  S
C1023      C1028   1.409       .  A
C1023      C1032   1.401       .  A
S1024      H1040   1.406       .  S
S1026      H1037   1.408       .  S
C1028      C1029   1.401       .  A
C1028      S1033   1.807       .  S
C1029      C1030   1.404       .  A
C1029      H1034   1.083       .  S
C1030      C1031   1.413       .  A
C1031      C1032   1.398       .  A
C1031      S1035   1.804       .  S
C1032      H1036   1.084       .  S
S1033      H1038   1.407       .  S
S1035      H1039   1.408       .  S
C1041      C1042   1.402       .  A
C1041      C1046   1.402       .  A
C1041      H1051   1.084       .  S
C1042      C1047   1.484   1_455  S
C1042      C1043   1.413       .  A
C1043      C1044   1.403       .  A
C1043      S1048   1.805       .  S
C1044      C1045   1.406       .  A
C1044      H1049   1.084       .  S
C1045      C1046   1.416       .  A
C1046      S1050   1.803       .  S
C1047      C1052   1.409       .  A
C1047      C1056   1.398       .  A
S1048      H1064   1.404   1_455  S
S1050      H1061   1.407       .  S
C1052      C1053   1.409       .  A
C1052      S1057   1.805       .  S
C1053      C1054   1.409       .  A
C1053      H1058   1.082       .  S
C1054      C1055   1.421       .  A
C1055      C1056   1.399       .  A
C1055      S1059   1.803       .  S
C1056      H1060   1.084       .  S
S1057      H1062   1.407       .  S
S1059      H1063   1.408       .  S
C1065      C1066   1.400       .  A
C1065      C1070   1.397   1_556  A
C1065      H1075   1.084       .  S
C1066      C1071   1.474       .  S
C1066      C1067   1.412       .  A
C1067      C1068   1.398   1_556  A
C1067      S1072   1.805       .  S
C1068      C1069   1.403       .  A
C1068      H1073   1.084       .  S
C1069      C1070   1.416       .  A
C1070      S1074   1.804       .  S
C1071      C1076   1.407       .  A
C1071      C1080   1.401       .  A
S1072      H1088   1.405       .  S
S1074      H1085   1.407       .  S
C1076      C1077   1.398       .  A
C1076      S1081   1.807       .  S
C1077      C1078   1.404       .  A
C1077      H1082   1.083       .  S
C1078      C1079   1.416       .  A
C1079      C1080   1.399       .  A
C1079      S1083   1.803       .  S
C1080      H1084   1.084       .  S
S1081      H1086   1.407       .  S
S1083      H1087   1.408       .  S
C1089      C1090   1.405       .  A
C1089      C1094   1.403       .  A
C1089      H1099   1.084       .  S
C1090      C1095   1.486       .  S
C1090      C1091   1.412       .  A
C1091      C1092   1.400       .  A
C1091      S1096   1.804       .  S
C1092      C1093   1.406       .  A
C1092      H1097   1.084       .  S
C1093      C1094   1.414       .  A
C1094      S1098   1.802       .  S
C1095      C1100   1.410       .  A
C1095      C1104   1.401       .  A
S1096      H1112   1.406       .  S
S1098      H1109   1.407       .  S
C1100      C1101   1.407       .  A
C1100      S1105   1.807       .  S
C1101      C1102   1.407       .  A
C1101      H1106   1.083       .  S
C1102      C1103   1.416       .  A
C1103      C1104   1.400       .  A
C1103      S1107   1.802       .  S
C1104      H1108   1.084       .  S
S1105      H1110   1.406       .  S
S1107      H1111   1.408       .  S
C1113      C1114   1.401       .  A
C1113      C1118   1.396       .  A
C1113      H1123   1.084       .  S
C1114      C1119   1.476       .  S
C1114      C1115   1.410       .  A
C1115      C1116   1.401       .  A
C1115      S1120   1.803       .  S
C1116      C1117   1.406       .  A
C1116      H1121   1.084       .  S
C1117      C1118   1.415       .  A
C1118      S1122   1.803       .  S
C1119      C1124   1.408       .  A
C1119      C1128   1.400       .  A
S1120      H1136   1.406       .  S
S1122      H1133   1.407       .  S
C1124      C1125   1.404       .  A
C1124      S1129   1.806       .  S
C1125      C1126   1.405       .  A
C1125      H1130   1.083       .  S
C1126      C1127   1.413       .  A
C1127      C1128   1.396       .  A
C1127      S1131   1.803       .  S
C1128      H1132   1.084       .  S
S1129      H1134   1.407       .  S
S1131      H1135   1.407       .  S
C1137      C1138   1.400       .  A
C1137      C1142   1.395   1_565  A
C1137      H1147   1.084       .  S
C1138      C1143   1.471       .  S
C1138      C1139   1.412       .  A
C1139      C1140   1.399   1_565  A
C1139      S1144   1.806       .  S
C1140      C1141   1.405       .  A
C1140      H1145   1.084       .  S
C1141      C1142   1.414       .  A
C1142      S1146   1.803       .  S
C1143      C1148   1.406       .  A
C1143      C1152   1.400       .  A
S1144      H1160   1.403       .  S
S1146      H1157   1.408       .  S
C1148      C1149   1.401       .  A
C1148      S1153   1.807       .  S
C1149      C1150   1.406       .  A
C1149      H1154   1.083       .  S
C1150      C1151   1.415       .  A
C1151      C1152   1.396       .  A
C1151      S1155   1.803       .  S
C1152      H1156   1.084       .  S
S1153      H1158   1.407       .  S
S1155      H1159   1.408       .  S
C1161      C1162   1.400       .  A
C1161      C1166   1.398       .  A
C1161      H1171   1.084       .  S
C1162      C1167   1.473       .  S
C1162      C1163   1.412       .  A
C1163      C1164   1.397       .  A
C1163      S1168   1.806       .  S
C1164      C1165   1.404       .  A
C1164      H1169   1.084       .  S
C1165      C1166   1.415       .  A
C1166      S1170   1.802       .  S
C1167      C1172   1.408       .  A
C1167      C1176   1.400       .  A
S1168      H1184   1.405       .  S
S1170      H1181   1.407       .  S
C1172      C1173   1.400       .  A
C1172      S1177   1.806       .  S
C1173      C1174   1.403       .  A
C1173      H1178   1.083       .  S
C1174      C1175   1.414       .  A
C1175      C1176   1.397       .  A
C1175      S1179   1.803       .  S
C1176      H1180   1.084       .  S
S1177      H1182   1.407       .  S
S1179      H1183   1.407       .  S
C1185      C1186   1.397       .  A
C1185      C1190   1.394   1_556  A
C1185      H1195   1.084       .  S
C1186      C1191   1.468       .  S
C1186      C1187   1.411       .  A
C1187      C1188   1.398   1_556  A
C1187      S1192   1.805       .  S
C1188      C1189   1.404       .  A
C1188      H1193   1.084       .  S
C1189      C1190   1.416       .  A
C1190      S1194   1.803       .  S
C1191      C1196   1.406       .  A
C1191      C1200   1.400       .  A
S1192      H1208   1.406       .  S
S1194      H1205   1.408       .  S
C1196      C1197   1.397       .  A
C1196      S1201   1.807       .  S
C1197      C1198   1.404       .  A
C1197      H1202   1.083       .  S
C1198      C1199   1.414       .  A
C1199      C1200   1.396       .  A
C1199      S1203   1.803       .  S
C1200      H1204   1.084       .  S
S1201      H1206   1.407       .  S
S1203      H1207   1.407       .  S
C1209      C1210   1.402       .  A
C1209      C1214   1.401       .  A
C1209      H1219   1.084       .  S
C1210      C1215   1.486       .  S
C1210      C1211   1.412       .  A
C1211      C1212   1.401       .  A
C1211      S1216   1.804       .  S
C1212      C1213   1.407       .  A
C1212      H1217   1.083       .  S
C1213      C1214   1.419       .  A
C1214      S1218   1.803       .  S
C1215      C1220   1.410       .  A
C1215      C1224   1.402       .  A
S1216      H1232   1.406       .  S
S1218      H1229   1.408       .  S
C1220      C1221   1.404   1_565  A
C1220      S1225   1.808       .  S
C1221      C1222   1.408       .  A
C1221      H1226   1.082       .  S
C1222      C1223   1.417       .  A
C1223      C1224   1.403   1_545  A
C1223      S1227   1.801       .  S
C1224      H1228   1.084       .  S
S1225      H1230   1.407       .  S
S1227      H1231   1.408       .  S
C1233      C1234   1.400       .  A
C1233      C1238   1.401       .  A
C1233      H1243   1.084       .  S
C1234      C1239   1.480       .  S
C1234      C1235   1.412       .  A
C1235      C1236   1.401       .  A
C1235      S1240   1.804       .  S
C1236      C1237   1.405       .  A
C1236      H1241   1.084       .  S
C1237      C1238   1.418       .  A
C1238      S1242   1.803       .  S
C1239      C1244   1.407       .  A
C1239      C1248   1.401       .  A
S1240      H1256   1.405       .  S
S1242      H1253   1.408       .  S
C1244      C1245   1.402       .  A
C1244      S1249   1.807       .  S
C1245      C1246   1.408       .  A
C1245      H1250   1.082       .  S
C1246      C1247   1.418       .  A
C1247      C1248   1.402       .  A
C1247      S1251   1.802       .  S
C1248      H1252   1.084       .  S
S1249      H1254   1.407       .  S
S1251      H1255   1.407       .  S
C1257      C1258   1.401   1_554  A
C1257      C1262   1.397       .  A
C1257      H1267   1.084   1_554  S
C1258      C1263   1.473       .  S
C1258      C1259   1.409   1_556  A
C1259      C1260   1.398       .  A
C1259      S1264   1.803       .  S
C1260      C1261   1.405       .  A
C1260      H1265   1.084       .  S
C1261      C1262   1.412       .  A
C1262      S1266   1.803       .  S
C1263      C1268   1.406       .  A
C1263      C1272   1.399       .  A
S1264      H1280   1.405   1_554  S
S1266      H1277   1.407       .  S
C1268      C1269   1.399       .  A
C1268      S1273   1.808       .  S
C1269      C1270   1.408       .  A
C1269      H1274   1.082       .  S
C1270      C1271   1.419       .  A
C1271      C1272   1.400       .  A
C1271      S1275   1.800       .  S
C1272      H1276   1.084       .  S
S1273      H1278   1.406       .  S
S1275      H1279   1.408       .  S
C1281      C1282   1.401       .  A
C1281      C1286   1.398       .  A
C1281      H1291   1.084       .  S
C1282      C1287   1.483       .  S
C1282      C1283   1.413       .  A
C1283      C1284   1.402       .  A
C1283      S1288   1.804       .  S
C1284      C1285   1.406       .  A
C1284      H1289   1.084       .  S
C1285      C1286   1.414       .  A
C1286      S1290   1.803       .  S
C1287      C1292   1.410       .  A
C1287      C1296   1.404       .  A
S1288      H1304   1.406       .  S
S1290      H1301   1.407       .  S
C1292      C1293   1.399       .  A
C1292      S1297   1.810       .  S
C1293      C1294   1.406       .  A
C1293      H1298   1.082       .  S
C1294      C1295   1.416       .  A
C1295      C1296   1.404       .  A
C1295      S1299   1.801       .  S
C1296      H1300   1.084       .  S
S1297      H1302   1.406       .  S
S1299      H1303   1.407       .  S
C1305      C1306   1.403       .  A
C1305      C1310   1.397       .  A
C1305      H1315   1.084       .  S
C1306      C1311   1.480       .  S
C1306      C1307   1.411       .  A
C1307      C1308   1.400       .  A
C1307      S1312   1.804       .  S
C1308      C1309   1.406       .  A
C1308      H1313   1.084       .  S
C1309      C1310   1.414       .  A
C1310      S1314   1.802       .  S
C1311      C1316   1.410       .  A
C1311      C1320   1.403       .  A
S1312      H1328   1.406       .  S
S1314      H1325   1.407       .  S
C1316      C1317   1.402       .  A
C1316      S1321   1.806       .  S
C1317      C1318   1.404       .  A
C1317      H1322   1.082       .  S
C1318      C1319   1.411       .  A
C1319      C1320   1.397       .  A
C1319      S1323   1.803       .  S
C1320      H1324   1.084       .  S
S1321      H1326   1.407       .  S
S1323      H1327   1.407       .  S
C1329      C1330   1.402       .  A
C1329      C1334   1.400   1_565  A
C1329      H1339   1.084       .  S
C1330      C1335   1.477       .  S
C1330      C1331   1.412       .  A
C1331      C1332   1.400   1_565  A
C1331      S1336   1.805       .  S
C1332      C1333   1.404       .  A
C1332      H1337   1.084       .  S
C1333      C1334   1.415       .  A
C1334      S1338   1.804       .  S
C1335      C1340   1.409       .  A
C1335      C1344   1.400       .  A
S1336      H1352   1.405       .  S
S1338      H1349   1.407       .  S
C1340      C1341   1.402       .  A
C1340      S1345   1.806       .  S
C1341      C1342   1.405       .  A
C1341      H1346   1.083       .  S
C1342      C1343   1.416       .  A
C1343      C1344   1.398       .  A
C1343      S1347   1.802       .  S
C1344      H1348   1.084       .  S
S1345      H1350   1.407       .  S
S1347      H1351   1.408       .  S
C1353      C1354   1.401       .  A
C1353      C1358   1.400       .  A
C1353      H1363   1.084       .  S
C1354      C1359   1.482       .  S
C1354      C1355   1.412       .  A
C1355      C1356   1.402       .  A
C1355      S1360   1.804       .  S
C1356      C1357   1.406       .  A
C1356      H1361   1.083       .  S
C1357      C1358   1.416       .  A
C1358      S1362   1.801       .  S
C1359      C1364   1.409       .  A
C1359      C1368   1.403       .  A
S1360      H1376   1.406       .  S
S1362      H1373   1.407       .  S
C1364      C1365   1.398       .  A
C1364      S1369   1.809       .  S
C1365      C1366   1.408       .  A
C1365      H1370   1.082       .  S
C1366      C1367   1.417       .  A
C1367      C1368   1.405       .  A
C1367      S1371   1.800       .  S
C1368      H1372   1.083       .  S
S1369      H1374   1.407       .  S
S1371      H1375   1.408       .  S
C1377      C1378   1.400       .  A
C1377      C1382   1.398   1_556  A
C1377      H1387   1.084       .  S
C1378      C1383   1.475       .  S
C1378      C1379   1.410       .  A
C1379      C1380   1.398   1_556  A
C1379      S1384   1.804       .  S
C1380      C1381   1.405       .  A
C1380      H1385   1.084       .  S
C1381      C1382   1.416       .  A
C1382      S1386   1.803       .  S
C1383      C1388   1.407       .  A
C1383      C1392   1.400       .  A
S1384      H1400   1.406       .  S
S1386      H1397   1.407       .  S
C1388      C1389   1.402       .  A
C1388      S1393   1.806       .  S
C1389      C1390   1.405       .  A
C1389      H1394   1.083       .  S
C1390      C1391   1.416       .  A
C1391      C1392   1.397       .  A
C1391      S1395   1.803       .  S
C1392      H1396   1.084       .  S
S1393      H1398   1.407       .  S
S1395      H1399   1.407       .  S
C1401      C1402   1.403       .  A
C1401      C1406   1.405   1_565  A
C1401      H1411   1.084       .  S
C1402      C1407   1.487       .  S
C1402      C1403   1.413       .  A
C1403      C1404   1.401   1_565  A
C1403      S1408   1.803       .  S
C1404      C1405   1.404       .  A
C1404      H1409   1.085       .  S
C1405      C1406   1.415       .  A
C1406      S1410   1.808       .  S
C1407      C1412   1.411       .  A
C1407      C1416   1.401       .  A
S1408      H1424   1.406       .  S
S1410      H1421   1.407   1_545  S
C1412      C1413   1.407       .  A
C1412      S1417   1.806       .  S
C1413      C1414   1.406       .  A
C1413      H1418   1.083       .  S
C1414      C1415   1.418       .  A
C1415      C1416   1.401       .  A
C1415      S1419   1.804       .  S
C1416      H1420   1.085       .  S
S1417      H1422   1.407       .  S
S1419      H1423   1.407       .  S
C1425      C1426   1.400       .  A
C1425      C1430   1.395       .  A
C1425      H1435   1.085       .  S
C1426      C1431   1.469       .  S
C1426      C1427   1.409       .  A
C1427      C1428   1.395       .  A
C1427      S1432   1.805       .  S
C1428      C1429   1.406       .  A
C1428      H1433   1.084       .  S
C1429      C1430   1.416       .  A
C1430      S1434   1.802       .  S
C1431      C1436   1.410       .  A
C1431      C1440   1.399       .  A
S1432      H1448   1.405       .  S
S1434      H1445   1.407       .  S
C1436      C1437   1.400       .  A
C1436      S1441   1.807       .  S
C1437      C1438   1.402       .  A
C1437      H1442   1.083       .  S
C1438      C1439   1.413       .  A
C1439      C1440   1.393       .  A
C1439      S1443   1.804       .  S
C1440      H1444   1.084       .  S
S1441      H1446   1.407       .  S
S1443      H1447   1.407       .  S
C1449      C1450   1.402       .  A
C1449      C1454   1.399       .  A
C1449      H1459   1.084       .  S
C1450      C1455   1.484   1_655  S
C1450      C1451   1.413       .  A
C1451      C1452   1.403       .  A
C1451      S1456   1.805       .  S
C1452      C1453   1.406       .  A
C1452      H1457   1.084       .  S
C1453      C1454   1.416       .  A
C1454      S1458   1.803       .  S
C1455      C1460   1.410       .  A
C1455      C1464   1.401       .  A
S1456      H1472   1.404       .  S
S1458      H1469   1.407       .  S
C1460      C1461   1.405       .  A
C1460      S1465   1.806       .  S
C1461      C1462   1.405       .  A
C1461      H1466   1.083       .  S
C1462      C1463   1.419       .  A
C1463      C1464   1.401       .  A
C1463      S1467   1.803       .  S
C1464      H1468   1.084       .  S
S1465      H1470   1.407       .  S
S1467      H1471   1.407       .  S
C1473      C1474   1.405       .  A
C1473      C1478   1.402       .  A
C1473      H1483   1.084       .  S
C1474      C1479   1.488       .  S
C1474      C1475   1.412       .  A
C1475      C1476   1.400       .  A
C1475      S1480   1.804       .  S
C1476      C1477   1.407       .  A
C1476      H1481   1.084       .  S
C1477      C1478   1.415       .  A
C1478      S1482   1.801       .  S
C1479      C1484   1.409       .  A
C1479      C1488   1.404       .  A
S1480      H1496   1.406       .  S
S1482      H1493   1.407       .  S
C1484      C1485   1.403       .  A
C1484      S1489   1.808       .  S
C1485      C1486   1.409       .  A
C1485      H1490   1.082       .  S
C1486      C1487   1.417       .  A
C1487      C1488   1.404       .  A
C1487      S1491   1.801       .  S
C1488      H1492   1.084       .  S
S1489      H1494   1.406       .  S
S1491      H1495   1.408       .  S
C1497      C1498   1.403       .  A
C1497      C1502   1.403       .  A
C1497      H1507   1.084       .  S
C1498      C1503   1.476       .  S
C1498      C1499   1.410       .  A
C1499      C1500   1.393       .  A
C1499      S1504   1.805       .  S
C1500      C1501   1.403       .  A
C1500      H1505   1.084       .  S
C1501      C1502   1.416       .  A
C1502      S1506   1.801       .  S
C1503      C1508   1.410       .  A
C1503      C1512   1.399       .  A
S1504      H1520   1.405       .  S
S1506      H1517   1.407       .  S
C1508      C1509   1.407   1_556  A
C1508      S1513   1.804       .  S
C1509      C1510   1.403       .  A
C1509      H1514   1.083       .  S
C1510      C1511   1.412       .  A
C1511      C1512   1.392   1_554  A
C1511      S1515   1.805       .  S
C1512      H1516   1.084       .  S
S1513      H1518   1.407       .  S
S1515      H1519   1.407       .  S
C1521      C1522   1.403       .  A
C1521      C1526   1.397       .  A
C1521      H1531   1.084       .  S
C1522      C1527   1.487       .  S
C1522      C1523   1.414       .  A
C1523      C1524   1.404       .  A
C1523      S1528   1.803       .  S
C1524      C1525   1.405       .  A
C1524      H1529   1.084       .  S
C1525      C1526   1.415       .  A
C1526      S1530   1.804       .  S
C1527      C1532   1.412       .  A
C1527      C1536   1.402       .  A
S1528      H1544   1.406       .  S
S1530      H1541   1.407       .  S
C1532      C1533   1.407       .  A
C1532      S1537   1.806       .  S
C1533      C1534   1.405       .  A
C1533      H1538   1.083       .  S
C1534      C1535   1.414       .  A
C1535      C1536   1.398       .  A
C1535      S1539   1.804       .  S
C1536      H1540   1.084       .  S
S1537      H1542   1.407       .  S
S1539      H1543   1.407       .  S
C1545      C1546   1.402       .  A
C1545      C1550   1.399       .  A
C1545      H1555   1.084       .  S
C1546      C1551   1.477   1_655  S
C1546      C1547   1.412       .  A
C1547      C1548   1.397       .  A
C1547      S1552   1.804       .  S
C1548      C1549   1.403       .  A
C1548      H1553   1.084       .  S
C1549      C1550   1.416       .  A
C1550      S1554   1.804       .  S
C1551      C1556   1.408       .  A
C1551      C1560   1.402       .  A
S1552      H1568   1.406       .  S
S1554      H1565   1.407       .  S
C1556      C1557   1.401       .  A
C1556      S1561   1.807       .  S
C1557      C1558   1.405       .  A
C1557      H1562   1.084       .  S
C1558      C1559   1.414       .  A
C1559      C1560   1.399       .  A
C1559      S1563   1.802       .  S
C1560      H1564   1.084       .  S
S1561      H1566   1.407       .  S
S1563      H1567   1.407       .  S
