geometry optimzed in LAMMPS
_audit_creation_date              2020-11-30 
_audit_creation_method            'lammps2cif' 
_symmetry_space_group_name_H-M    'P1' 
_symmetry_Int_Tables_number       1 
_symmetry_cell_setting            triclinic 
loop_ 
_symmetry_equiv_pos_as_xyz 
  x,y,z 
_cell_length_a                    28.40550229 
_cell_length_b                    39.384335695252126 
_cell_length_c                    34.26747067300084 
_cell_angle_alpha                 85.89992307240747 
_cell_angle_beta                  90.74506935123742 
_cell_angle_gamma                 90.23815136241078 
loop_ 
_atom_site_label 
_atom_site_type_symbol 
_atom_site_fract_x 
_atom_site_fract_y 
_atom_site_fract_z 
_atom_site_charge 
In1        In  0.68816063  0.25110603  0.36394567     1.36900
C2          C  0.73333997  0.19277439  0.37830849     0.77300
O3          O  0.64543955  0.23412540  0.41662822    -0.61200
O4          O  0.61378077  0.26817199  0.37373410    -0.52100
C5          C  0.72681557  0.31004000  0.38159145     0.69900
O6          O  0.73147684  0.28317155  0.40353481    -0.47000
C7          C  0.68527971  0.24870548  0.28632264     0.74600
O8          O  0.75139160  0.22104611  0.38549929    -0.58800
O9          O  0.64877712  0.24628230  0.30700747    -0.48900
O10         O  0.69174654  0.19451660  0.36499640    -0.55200
C11         C  0.61002296  0.25187162  0.40655457     0.84800
O12         O  0.70353666  0.30628878  0.35070137    -0.57100
O13         O  0.72305078  0.25243761  0.30530395    -0.60400
In14       In  0.69009812  0.25070161  0.03928430     1.36900
C15         C  0.73106676  0.30995527  0.01866401     0.77300
O16         O  0.65086792  0.26253742  0.48274305    -0.61200
O17         O  0.61340942  0.24051982  0.03142347    -0.52100
C18         C  0.72692556  0.19018401  0.02764466     0.69900
O19         O  0.75180444  0.21561172  0.03475578    -0.47000
C20         C  0.68659213  0.24934731  0.11723817     0.74600
O21         O  0.74394208  0.28246021  0.00532648    -0.58800
O22         O  0.65080915  0.25437252  0.09551565    -0.48900
O23         O  0.69630234  0.30712740  0.04116703    -0.55200
C24         C  0.61209236  0.25114744  0.49578092     0.84800
O25         O  0.68359361  0.19620750  0.02505724    -0.57100
O26         O  0.72401914  0.24522421  0.09895401    -0.60400
C27         C  0.56804028  0.25066109  0.47206533     0.02000
C28         C  0.56706957  0.25289671  0.43054596     0.01900
C29         C  0.52346361  0.25466420  0.41083936    -0.18600
C30         C  0.48071187  0.25300106  0.43109624     0.02000
C31         C  0.48165723  0.25074990  0.47258870     0.01900
C32         C  0.52525858  0.24913531  0.49227219    -0.18600
H33         H  0.52582747  0.24786407  0.02398610     0.04000
H34         H  0.52286216  0.25578816  0.37912870     0.04000
In35       In  0.35870773  0.24777708  0.36488320     1.36900
C36         C  0.31658550  0.30433266  0.38493139     0.77300
O37         O  0.39908944  0.23817153  0.42082515    -0.61200
O38         O  0.43421420  0.26250967  0.37217862    -0.52100
C39         C  0.32145780  0.18623432  0.38062665     0.69900
O40         O  0.29693778  0.21221651  0.37117852    -0.47000
C41         C  0.36322407  0.24627610  0.28703087     0.74600
O42         O  0.30392903  0.27508633  0.39812197    -0.58800
O43         O  0.39829100  0.24022532  0.30927576    -0.48900
O44         O  0.35118997  0.30464591  0.36236859    -0.55200
C45         C  0.43665454  0.25147202  0.40765672     0.84800
O46         O  0.36492707  0.19223198  0.38286825    -0.57100
O47         O  0.32614498  0.25277822  0.30471768    -0.60400
In48       In  0.36116154  0.25077798  0.04014529     1.36900
C49         C  0.31354919  0.19468985  0.02226768     0.77300
O50         O  0.40185925  0.26708461  0.48602916    -0.61200
O51         O  0.43628402  0.23600085  0.03020976    -0.52100
C52         C  0.32617409  0.31389824  0.02975077     0.69900
O53         O  0.31643477  0.29084290  0.00711286    -0.47000
C54         C  0.36444815  0.24634189  0.11807657     0.74600
O55         O  0.29661287  0.22420353  0.01697750    -0.58800
O56         O  0.40092090  0.25007661  0.09754715    -0.48900
O57         O  0.35493464  0.19419649  0.03573548    -0.55200
C58         C  0.43866770  0.25114970  0.49667227     0.84800
O59         O  0.35519229  0.30470684  0.05648866    -0.57100
O60         O  0.32656000  0.24396715  0.09880095    -0.60400
In61       In  0.85839461  0.50046515  0.36451943     1.36900
C62         C  0.82266707  0.06167738  0.37696806     0.77300
O63         O  0.89902007  0.48717795  0.42004204    -0.61200
O64         O  0.93588066  0.01103105  0.37253121    -0.52100
C65         C  0.81305288  0.44190035  0.38181803     0.69900
O66         O  0.79553964  0.47045358  0.38778290    -0.47000
C67         C  0.86080238  0.99839552  0.28709681     0.74600
O68         O  0.82104421  0.03681441  0.40213881    -0.58800
O69         O  0.89767006  0.99834605  0.30815305    -0.48900
O70         O  0.84232903  0.05499696  0.34584935    -0.55200
C71         C  0.93745244  0.49930721  0.40771335     0.84800
O72         O  0.85340693  0.44371451  0.36691632    -0.57100
O73         O  0.82281351  0.49879064  0.30582630    -0.60400
In74       In  0.85881321  0.99954952  0.03927801     1.36900
C75         C  0.82068057  0.44064432  0.01967747     0.77300
O76         O  0.90005876  0.01611770  0.48548265    -0.61200
O77         O  0.93408941  0.48522914  0.03023363    -0.52100
C78         C  0.81456052  0.05850655  0.02713350     0.69900
O79         O  0.79473975  0.03035800  0.02224197    -0.47000
C80         C  0.86111102  0.49954999  0.11746718     0.74600
O81         O  0.81357463  0.46834856  0.99973463    -0.58800
O82         O  0.89745508  0.50404173  0.09687879    -0.48900
O83         O  0.84688050  0.44348685  0.04916003    -0.55200
C84         C  0.93689616  0.50047871  0.49672409     0.84800
O85         O  0.85744193  0.05640161  0.03697048    -0.57100
O86         O  0.82396400  0.99516214  0.09792346    -0.60400
C87         C  0.98047831  0.50035543  0.47345047     0.02000
C88         C  0.98093233  0.49971400  0.43207646     0.01900
C89         C  0.02441394  0.49892566  0.41306034    -0.18600
C90         C  0.06744027  0.49893136  0.43379854     0.02000
C91         C  0.06662787  0.50038884  0.47503976     0.01900
C92         C  0.02332667  0.50096015  0.49403105    -0.18600
H93         H  0.02298009  0.50172007  0.02570533     0.04000
H94         H  0.02472558  0.49817321  0.38141669     0.04000
In95       In  0.18954083  0.99618738  0.36888688     1.36900
C96         C  0.22873456  0.43528079  0.38820745     0.77300
O97         O  0.15070176  0.00910818  0.42252937    -0.61200
O98         O  0.11266676  0.48608508  0.37775355    -0.52100
C99         C  0.23186988  0.05470916  0.38231674     0.69900
O100        O  0.24432060  0.02669186  0.39941123    -0.47000
C101        C  0.18126105  0.49580517  0.29093491     0.74600
O102        O  0.25203456  0.46061717  0.37471191    -0.58800
O103        O  0.14692687  0.50141451  0.31243564    -0.48900
O104        O  0.18622783  0.44174411  0.39425646    -0.55200
C105        C  0.11156827  0.49796074  0.41100650     0.84800
O106        O  0.19743808  0.05282886  0.35903354    -0.57100
O107        O  0.21955466  0.99087899  0.30924766    -0.60400
In108      In  0.18667672  0.50169873  0.04448936     1.36900
C109        C  0.22309746  0.06357628  0.02584029     0.77300
O110        O  0.14524055  0.48326693  0.49394892    -0.61200
O111        O  0.11255530  0.01781728  0.02935822    -0.52100
C112        C  0.23360563  0.44469346  0.03412278     0.69900
O113        O  0.25040768  0.47388904  0.02463430    -0.47000
C114        C  0.17923352  0.99644446  0.12204701     0.74600
O115        O  0.22358559  0.04025254  0.00249237    -0.58800
O116        O  0.14360958  0.99847473  0.09953481    -0.48900
O117        O  0.20505651  0.05483393  0.05824484    -0.55200
C118        C  0.10942760  0.50065031  0.49980713     0.84800
O119        O  0.19333456  0.44499018  0.04918434    -0.57100
O120        O  0.21822575  0.49609617  0.10483830    -0.60400
C121        C  0.19727560  0.46765043  0.22919593    -0.02200
C122        C  0.17742467  0.49495923  0.24782638     0.07500
C123        C  0.15595692  0.02201545  0.22497615    -0.02300
C124        C  0.15529906  0.02207839  0.18377785    -0.02300
C125        C  0.17612227  0.49510554  0.16521901     0.07600
C126        C  0.19681589  0.46782930  0.18807571    -0.02500
Br127      Br  0.22402587  0.43028609  0.16297514    -0.01000
Br128      Br  0.22404668  0.42928005  0.25994236    -0.01100
Br129      Br  0.12939211  0.06059701  0.15279026    -0.01100
Br130      Br  0.13093272  0.06046388  0.24981229    -0.01000
C131        C  0.88791012  0.02325456  0.22159971    -0.02200
C132        C  0.86182553  0.99835225  0.24383389     0.07500
C133        C  0.83583145  0.47381548  0.22457208    -0.02300
C134        C  0.83595096  0.47405349  0.18339594    -0.02300
C135        C  0.86172872  0.49912811  0.16096174     0.07600
C136        C  0.88754788  0.02384888  0.18034679    -0.02500
Br137      Br  0.91993215  0.06014169  0.15062632    -0.01000
Br138      Br  0.92229477  0.05780218  0.24752905    -0.01100
Br139      Br  0.80259283  0.43858950  0.15819768    -0.01100
Br140      Br  0.80200017  0.43853795  0.25480776    -0.01000
C141        C  0.28822975  0.10267528  0.00174445    -0.02200
C142        C  0.24271556  0.09823183  0.01724063     0.07500
C143        C  0.21780787  0.12685322  0.02855856    -0.02300
C144        C  0.23970414  0.15909024  0.02758653    -0.02300
C145        C  0.28695895  0.16293191  0.01550211     0.07600
C146        C  0.31020698  0.13489805  0.00078546    -0.02500
Br147      Br  0.37242279  0.14033438  0.97911740    -0.01000
Br148      Br  0.32264611  0.06406371  0.98536824    -0.01100
Br149      Br  0.20534280  0.19710486  0.04564921    -0.01100
Br150      Br  0.15348973  0.12195341  0.04601195    -0.01000
C151        C  0.25702337  0.35275005  0.01326032    -0.02200
C152        C  0.30419404  0.34840493  0.02661420     0.07500
C153        C  0.32891588  0.37686117  0.03986766    -0.02300
C154        C  0.30599896  0.40838631  0.04191526    -0.02300
C155        C  0.25896608  0.41246473  0.02891970     0.07600
C156        C  0.23513896  0.38482658  0.01340767    -0.02500
Br157      Br  0.17230343  0.39088428  0.99174256    -0.01000
Br158      Br  0.21972453  0.31445141  0.99836937    -0.01100
Br159      Br  0.33800521  0.44514787  0.06587553    -0.01100
Br160      Br  0.39456431  0.37350889  0.05519563    -0.01000
C161        C  0.31522500  0.36253027  0.40993098    -0.02200
C162        C  0.29138736  0.33576968  0.39285953     0.07500
C163        C  0.24494985  0.34055225  0.37883854    -0.01100
C164        C  0.22392167  0.37287517  0.37846926    -0.02300
C165        C  0.24869831  0.40043232  0.39350919     0.07600
C166        C  0.29393429  0.39481258  0.41037323    -0.02500
Br167      Br  0.32689913  0.43119275  0.43402734    -0.01000
Br168      Br  0.37675212  0.35446881  0.43322554    -0.01100
Br169      Br  0.16342820  0.37981374  0.35273848    -0.01100
Br170      Br  0.21134069  0.30330270  0.35728258    -0.01000
C171        C  0.25463817  0.14704373  0.40113996    -0.02200
C172        C  0.30095888  0.15150873  0.38683192     0.07500
C173        C  0.32625367  0.12272520  0.37602002    -0.02300
C174        C  0.30408917  0.09066888  0.37659835    -0.02300
C175        C  0.25668615  0.08707247  0.38756432     0.07600
C176        C  0.23236555  0.11504012  0.40078408    -0.02500
Br177      Br  0.16852851  0.10927705  0.41878471    -0.01000
Br178      Br  0.22187207  0.18411685  0.42290035    -0.01100
Br179      Br  0.33766958  0.05200850  0.35927471    -0.01100
Br180      Br  0.39034834  0.12652710  0.35777439    -0.01000
C181        C  0.38946537  0.22072313  0.18424064    -0.02200
C182        C  0.36555086  0.24640836  0.16119818     0.07500
C183        C  0.34267013  0.27263016  0.17937079    -0.02300
C184        C  0.34287808  0.27289605  0.22041541    -0.02300
C185        C  0.36518020  0.24646703  0.24375291     0.07600
C186        C  0.38877887  0.22043407  0.22544889    -0.02500
Br187      Br  0.41797054  0.18320490  0.25642742    -0.01000
Br188      Br  0.42193795  0.18535649  0.15924970    -0.01100
Br189      Br  0.31505776  0.31095921  0.24425151    -0.01100
Br190      Br  0.31305475  0.30940419  0.14786766    -0.01000
C191        C  0.80452913  0.34515982  0.01810344    -0.02200
C192        C  0.75578008  0.34278582  0.01058081     0.07500
C193        C  0.72995638  0.37251334  0.99959736    -0.02300
C194        C  0.75194049  0.40473596  0.99902795    -0.02300
C195        C  0.79972605  0.40736221  0.01065956     0.07600
C196        C  0.82642407  0.37729356  0.01805024    -0.02500
Br197      Br  0.89350611  0.37979046  0.02784474    -0.01000
Br198      Br  0.84080983  0.30466819  0.03245002    -0.01100
Br199      Br  0.71515734  0.44489051  0.98467387    -0.01100
Br200      Br  0.66392285  0.36897559  0.98626123    -0.01000
C201        C  0.72456306  0.12691565  0.04237623    -0.02200
C202        C  0.74673949  0.15592287  0.02397067     0.07500
C203        C  0.78883039  0.15213415  0.00334511    -0.02300
C204        C  0.81009190  0.11995182  0.00304235    -0.02300
C205        C  0.78938433  0.09134811  0.02330725     0.07600
C206        C  0.74587441  0.09474758  0.04205817    -0.02500
Br207      Br  0.71660767  0.05589355  0.06987237    -0.01000
Br208      Br  0.66643065  0.13099149  0.07047220    -0.01100
Br209      Br  0.86666681  0.11492520  0.47338142    -0.01100
Br210      Br  0.81646711  0.19071139  0.47389622    -0.01000
C211        C  0.73642595  0.13081122  0.40024576    -0.02200
C212        C  0.75905391  0.16014607  0.38336354     0.07500
C213        C  0.80485026  0.15755418  0.36841665    -0.02300
C214        C  0.82637042  0.12546020  0.36772806    -0.02300
C215        C  0.80255607  0.09572023  0.38250123     0.07600
C216        C  0.75821881  0.09874978  0.40017310    -0.02500
Br217      Br  0.72529967  0.05901513  0.42223630    -0.01000
Br218      Br  0.67540892  0.13449257  0.42388363    -0.01100
Br219      Br  0.88916664  0.12274442  0.34706439    -0.01100
Br220      Br  0.83737473  0.19755000  0.34635981    -0.01000
C221        C  0.79377519  0.34685194  0.40287143    -0.02200
C222        C  0.74656999  0.34353492  0.39045203     0.07500
C223        C  0.71888362  0.37297859  0.38293382    -0.02300
C224        C  0.73962083  0.40552308  0.38274036    -0.02300
C225        C  0.78846459  0.40878999  0.39018612     0.07600
C226        C  0.81469351  0.37939666  0.40262204    -0.02500
Br227      Br  0.87945710  0.38343731  0.41964859    -0.01000
Br228      Br  0.83092871  0.30699902  0.41799129    -0.01100
Br229      Br  0.70079316  0.44492791  0.36959061    -0.01100
Br230      Br  0.65190146  0.36865431  0.37348182    -0.01000
C231        C  0.65795840  0.27242560  0.22022068    -0.02200
C232        C  0.68404723  0.24785948  0.24319083     0.07500
C233        C  0.71010104  0.22323975  0.22479695    -0.02300
C234        C  0.71030507  0.22333306  0.18363167    -0.02300
C235        C  0.68502469  0.24845805  0.16054797     0.07600
C236        C  0.65882319  0.27299582  0.17906729    -0.02500
Br237      Br  0.62674647  0.30912407  0.14835021    -0.01000
Br238      Br  0.62295992  0.30660659  0.24515156    -0.01100
Br239      Br  0.74346337  0.18785423  0.15916311    -0.01100
Br240      Br  0.74394906  0.18840018  0.25608988    -0.01000
In241      In  0.68816068  0.25110603  0.86394567     1.36900
C242        C  0.73333993  0.19277434  0.87830857     0.77300
O243        O  0.64543960  0.23412545  0.91662826    -0.61200
O244        O  0.61378084  0.26817204  0.87373413    -0.52100
C245        C  0.72681568  0.31004004  0.88159134     0.69900
O246        O  0.73147714  0.28317158  0.90353464    -0.47000
C247        C  0.68527978  0.24870546  0.78632264     0.74600
O248        O  0.75139161  0.22104604  0.88549936    -0.58800
O249        O  0.64877718  0.24628241  0.80700747    -0.48900
O250        O  0.69174651  0.19451659  0.86499645    -0.55200
C251        C  0.61002302  0.25187166  0.90655463     0.84800
O252        O  0.70353666  0.30628879  0.85070133    -0.57100
O253        O  0.72305088  0.25243746  0.80530396    -0.60400
In254      In  0.69009816  0.25070165  0.53928426     1.36900
C255        C  0.73106676  0.30995532  0.51866400     0.77300
O256        O  0.65086791  0.26253736  0.98274308    -0.61200
O257        O  0.61340946  0.24051986  0.53142346    -0.52100
C258        C  0.72692565  0.19018408  0.52764456     0.69900
O259        O  0.75180450  0.21561181  0.53475566    -0.47000
C260        C  0.68659224  0.24934731  0.61723816     0.74600
O261        O  0.74394206  0.28246025  0.50532645    -0.58800
O262        O  0.65080926  0.25437250  0.59551565    -0.48900
O263        O  0.69630236  0.30712746  0.54116703    -0.55200
C264        C  0.61209234  0.25114742  0.99578093     0.84800
O265        O  0.68359370  0.19620754  0.52505712    -0.57100
O266        O  0.72401925  0.24522424  0.59895399    -0.60400
C267        C  0.56804022  0.25066111  0.97206539     0.02000
C268        C  0.56706955  0.25289672  0.93054592     0.01900
C269        C  0.52346360  0.25466412  0.91083954    -0.18600
C270        C  0.48071186  0.25300103  0.93109618     0.02000
C271        C  0.48165716  0.25074991  0.97258872     0.01900
C272        C  0.52525849  0.24913537  0.99227209    -0.18600
H273        H  0.52582757  0.24786400  0.52398568     0.04000
H274        H  0.52286214  0.25578806  0.87912799     0.04000
In275      In  0.35870773  0.24777712  0.86488321     1.36900
C276        C  0.31658547  0.30433268  0.88493146     0.77300
O277        O  0.39908951  0.23817137  0.92082505    -0.61200
O278        O  0.43421411  0.26250994  0.87217871    -0.52100
C279        C  0.32145774  0.18623436  0.88062667     0.69900
O280        O  0.29693771  0.21221660  0.87117884    -0.47000
C281        C  0.36322408  0.24627617  0.78703089     0.74600
O282        O  0.30392905  0.27508636  0.89812207    -0.58800
O283        O  0.39829102  0.24022540  0.80927576    -0.48900
O284        O  0.35118985  0.30464592  0.86236857    -0.55200
C285        C  0.43665452  0.25147204  0.90765673     0.84800
O286        O  0.36492706  0.19223197  0.88286797    -0.57100
O287        O  0.32614498  0.25277828  0.80471771    -0.60400
In288      In  0.36116164  0.25077794  0.54014535     1.36900
C289        C  0.31354925  0.19468980  0.52226773     0.77300
O290        O  0.40185906  0.26708453  0.98602899    -0.61200
O291        O  0.43628413  0.23600071  0.53020976    -0.52100
C292        C  0.32617424  0.31389823  0.52975082     0.69900
O293        O  0.31643506  0.29084292  0.50711282    -0.47000
C294        C  0.36444821  0.24634189  0.61807661     0.74600
O295        O  0.29661296  0.22420349  0.51697756    -0.58800
O296        O  0.40092100  0.25007647  0.59754722    -0.48900
O297        O  0.35493468  0.19419642  0.53573556    -0.55200
C298        C  0.43866755  0.25114972  0.99667219     0.84800
O299        O  0.35519234  0.30470681  0.55648879    -0.57100
O300        O  0.32656005  0.24396727  0.59880099    -0.60400
In301      In  0.85839458  0.50046517  0.86451941     1.36900
C302        C  0.82266704  0.06167736  0.87696807     0.77300
O303        O  0.89902010  0.48717781  0.92004200    -0.61200
O304        O  0.93588061  0.01103118  0.87253117    -0.52100
C305        C  0.81305284  0.44190039  0.88181805     0.69900
O306        O  0.79553961  0.47045362  0.88778293    -0.47000
C307        C  0.86080245  0.99839552  0.78709671     0.74600
O308        O  0.82104424  0.03681437  0.90213880    -0.58800
O309        O  0.89767012  0.99834614  0.80815296    -0.48900
O310        O  0.84232892  0.05499697  0.84584932    -0.55200
C311        C  0.93745240  0.49930721  0.90771335     0.84800
O312        O  0.85340688  0.44371455  0.86691633    -0.57100
O313        O  0.82281351  0.49879053  0.80582626    -0.60400
In314      In  0.85881330  0.99954955  0.53927801     1.36900
C315        C  0.82068058  0.44064438  0.51967748     0.77300
O316        O  0.90005863  0.01611758  0.98548258    -0.61200
O317        O  0.93408950  0.48522918  0.53023359    -0.52100
C318        C  0.81456060  0.05850658  0.52713354     0.69900
O319        O  0.79473983  0.03035802  0.52224205    -0.47000
C320        C  0.86111119  0.49954996  0.61746707     0.74600
O321        O  0.81357470  0.46834859  0.49973455    -0.58800
O322        O  0.89745521  0.50404183  0.59687866    -0.48900
O323        O  0.84688050  0.44348696  0.54916003    -0.55200
C324        C  0.93689600  0.50047866  0.99672410     0.84800
O325        O  0.85744200  0.05640163  0.53697052    -0.57100
O326        O  0.82396413  0.99516199  0.59792343    -0.60400
C327        C  0.98047818  0.50035543  0.97345050     0.02000
C328        C  0.98093225  0.49971405  0.93207645     0.01900
C329        C  0.02441386  0.49892576  0.91306035    -0.18600
C330        C  0.06744017  0.49893148  0.93379856     0.02000
C331        C  0.06662773  0.50038889  0.97503980     0.01900
C332        C  0.02332652  0.50096013  0.99403098    -0.18600
H333        H  0.02298025  0.50172016  0.52570489     0.04000
H334        H  0.02472552  0.49817333  0.88141672     0.04000
In335      In  0.18954075  0.99618744  0.86888681     1.36900
C336        C  0.22873443  0.43528080  0.88820758     0.77300
O337        O  0.15070169  0.00910830  0.92252928    -0.61200
O338        O  0.11266669  0.48608517  0.87775360    -0.52100
C339        C  0.23186973  0.05470922  0.88231669     0.69900
O340        O  0.24432043  0.02669192  0.89941119    -0.47000
C341        C  0.18126109  0.49580525  0.79093493     0.74600
O342        O  0.25203446  0.46061718  0.87471208    -0.58800
O343        O  0.14692686  0.50141457  0.81243562    -0.48900
O344        O  0.18622770  0.44174412  0.89425654    -0.55200
C345        C  0.11156818  0.49796085  0.91100654     0.84800
O346        O  0.19743807  0.05282892  0.85903335    -0.57100
O347        O  0.21955459  0.99087887  0.80924759    -0.60400
In348      In  0.18667683  0.50169870  0.54448935     1.36900
C349        C  0.22309753  0.06357622  0.52584026     0.77300
O350        O  0.14524037  0.48326692  0.99394897    -0.61200
O351        O  0.11255538  0.01781735  0.52935822    -0.52100
C352        C  0.23360570  0.44469344  0.53412283     0.69900
O353        O  0.25040782  0.47388901  0.52463438    -0.47000
C354        C  0.17923362  0.99644435  0.62204697     0.74600
O355        O  0.22358551  0.04025250  0.50249231    -0.58800
O356        O  0.14360968  0.99847464  0.59953476    -0.48900
O357        O  0.20505680  0.05483384  0.55824490    -0.55200
C358        C  0.10942747  0.50065036  0.99980712     0.84800
O359        O  0.19333460  0.44499019  0.54918436    -0.57100
O360        O  0.21822594  0.49609606  0.60483829    -0.60400
C361        C  0.19727582  0.46765051  0.72919596    -0.02200
C362        C  0.17742480  0.49495930  0.74782638     0.07500
C363        C  0.15595686  0.02201540  0.72497599    -0.02300
C364        C  0.15529901  0.02207829  0.68377770    -0.02300
C365        C  0.17612248  0.49510557  0.66521901     0.07600
C366        C  0.19681616  0.46782937  0.68807574    -0.02500
Br367      Br  0.22402623  0.43028617  0.66297521    -0.01000
Br368      Br  0.22404699  0.42928019  0.75994242    -0.01100
Br369      Br  0.12939182  0.06059679  0.65279007    -0.01100
Br370      Br  0.13093275  0.06046389  0.74981205    -0.01000
C371        C  0.88791016  0.02325460  0.72159959    -0.02200
C372        C  0.86182561  0.99835227  0.74383379     0.07500
C373        C  0.83583158  0.47381549  0.72457199    -0.02300
C374        C  0.83595119  0.47405345  0.68339585    -0.02300
C375        C  0.86172892  0.49912807  0.66096163     0.07600
C376        C  0.88754794  0.02384887  0.68034667    -0.02500
Br377      Br  0.91993217  0.06014164  0.65062614    -0.01000
Br378      Br  0.92229471  0.05780228  0.74752887    -0.01100
Br379      Br  0.80259318  0.43858936  0.65819765    -0.01100
Br380      Br  0.80200012  0.43853803  0.75480762    -0.01000
C381        C  0.28822985  0.10267519  0.50174448    -0.02200
C382        C  0.24271562  0.09823177  0.51724057     0.07500
C383        C  0.21780794  0.12685316  0.52855848    -0.02300
C384        C  0.23970420  0.15909018  0.52758645    -0.02300
C385        C  0.28695903  0.16293185  0.51550211     0.07600
C386        C  0.31020709  0.13489796  0.50078553    -0.02500
Br387      Br  0.37242291  0.14033428  0.47911759    -0.01000
Br388      Br  0.32264623  0.06406359  0.48536843    -0.01100
Br389      Br  0.20534275  0.19710480  0.54564901    -0.01100
Br390      Br  0.15348978  0.12195339  0.54601177    -0.01000
C391        C  0.25702349  0.35275007  0.51326033    -0.02200
C392        C  0.30419415  0.34840493  0.52661425     0.07500
C393        C  0.32891594  0.37686117  0.53986775    -0.02300
C394        C  0.30599898  0.40838629  0.54191538    -0.02300
C395        C  0.25896613  0.41246473  0.52891977     0.07600
C396        C  0.23513906  0.38482660  0.51340764    -0.02500
Br397      Br  0.17230362  0.39088440  0.49174229    -0.01000
Br398      Br  0.21972474  0.31445145  0.49836927    -0.01100
Br399      Br  0.33800516  0.44514775  0.56587587    -0.01100
Br400      Br  0.39456438  0.37350893  0.55519570    -0.01000
C401        C  0.31522498  0.36253033  0.90993098    -0.02200
C402        C  0.29138733  0.33576972  0.89285959     0.07500
C403        C  0.24494980  0.34055227  0.87883866    -0.01100
C404        C  0.22392155  0.37287515  0.87846948    -0.02300
C405        C  0.24869820  0.40043233  0.89350934     0.07600
C406        C  0.29393424  0.39481263  0.91037328    -0.02500
Br407      Br  0.32689909  0.43119278  0.93402738    -0.01000
Br408      Br  0.37675219  0.35446891  0.93322533    -0.01100
Br409      Br  0.16342804  0.37981366  0.85273877    -0.01100
Br410      Br  0.21134064  0.30330273  0.85728262    -0.01000
C411        C  0.25463807  0.14704377  0.90113999    -0.02200
C412        C  0.30095878  0.15150876  0.88683194     0.07500
C413        C  0.32625352  0.12272521  0.87602003    -0.02300
C414        C  0.30408900  0.09066890  0.87659840    -0.02300
C415        C  0.25668599  0.08707252  0.88756434     0.07600
C416        C  0.23236541  0.11504017  0.90078409    -0.02500
Br417      Br  0.16852838  0.10927709  0.91878477    -0.01000
Br418      Br  0.22187196  0.18411682  0.92290046    -0.01100
Br419      Br  0.33766933  0.05200850  0.85927473    -0.01100
Br420      Br  0.39034807  0.12652703  0.85777416    -0.01000
C421        C  0.38946538  0.22072315  0.68424067    -0.02200
C422        C  0.36555089  0.24640838  0.66119821     0.07500
C423        C  0.34267013  0.27263019  0.67937081    -0.02300
C424        C  0.34287804  0.27289608  0.72041542    -0.02300
C425        C  0.36518020  0.24646708  0.74375292     0.07600
C426        C  0.38877890  0.22043413  0.72544892    -0.02500
Br427      Br  0.41797055  0.18320495  0.75642749    -0.01000
Br428      Br  0.42193790  0.18535643  0.65924977    -0.01100
Br429      Br  0.31505778  0.31095926  0.74425153    -0.01100
Br430      Br  0.31305476  0.30940424  0.64786772    -0.01000
C431        C  0.80452914  0.34515985  0.51810341    -0.02200
C432        C  0.75578009  0.34278587  0.51058081     0.07500
C433        C  0.72995638  0.37251340  0.49959743    -0.02300
C434        C  0.75194050  0.40473602  0.49902803    -0.02300
C435        C  0.79972604  0.40736226  0.51065965     0.07600
C436        C  0.82642406  0.37729360  0.51805030    -0.02500
Br437      Br  0.89350608  0.37979053  0.52784480    -0.01000
Br438      Br  0.84080983  0.30466816  0.53244979    -0.01100
Br439      Br  0.71515733  0.44489060  0.48467410    -0.01100
Br440      Br  0.66392281  0.36897570  0.48626143    -0.01000
C441        C  0.72456317  0.12691570  0.54237621    -0.02200
C442        C  0.74673961  0.15592292  0.52397063     0.07500
C443        C  0.78883050  0.15213419  0.50334508    -0.02300
C444        C  0.81009200  0.11995185  0.50304235    -0.02300
C445        C  0.78938442  0.09134815  0.52330725     0.07600
C446        C  0.74587448  0.09474761  0.54205814    -0.02500
Br447      Br  0.71660761  0.05589352  0.56987215    -0.01000
Br448      Br  0.66643064  0.13099155  0.57047199    -0.01100
Br449      Br  0.86666678  0.11492526  0.97338151    -0.01100
Br450      Br  0.81646702  0.19071135  0.97389626    -0.01000
C451        C  0.73642589  0.13081112  0.90024582    -0.02200
C452        C  0.75905384  0.16014599  0.88336361     0.07500
C453        C  0.80485018  0.15755412  0.86841672    -0.02300
C454        C  0.82637035  0.12546015  0.86772811    -0.02300
C455        C  0.80255603  0.09572017  0.88250128     0.07600
C456        C  0.75821876  0.09874969  0.90017314    -0.02500
Br457      Br  0.72529966  0.05901502  0.92223635    -0.01000
Br458      Br  0.67540886  0.13449245  0.92388369    -0.01100
Br459      Br  0.88916660  0.12274443  0.84706447    -0.01100
Br460      Br  0.83737469  0.19754992  0.84635986    -0.01000
C461        C  0.79377520  0.34685201  0.90287140    -0.02200
C462        C  0.74657003  0.34353499  0.89045191     0.07500
C463        C  0.71888363  0.37297865  0.88293371    -0.02300
C464        C  0.73962081  0.40552314  0.88274029    -0.02300
C465        C  0.78846456  0.40879004  0.89018611     0.07600
C466        C  0.81469350  0.37939673  0.90262201    -0.02500
Br467      Br  0.87945705  0.38343741  0.91964864    -0.01000
Br468      Br  0.83092874  0.30699912  0.91799135    -0.01100
Br469      Br  0.70079312  0.44492798  0.86959066    -0.01100
Br470      Br  0.65190148  0.36865438  0.87348160    -0.01000
C471        C  0.65795838  0.27242548  0.72022066    -0.02200
C472        C  0.68404727  0.24785940  0.74319082     0.07500
C473        C  0.71010112  0.22323967  0.72479694    -0.02300
C474        C  0.71030513  0.22333298  0.68363165    -0.02300
C475        C  0.68502479  0.24845799  0.66054796     0.07600
C476        C  0.65882322  0.27299571  0.67906728    -0.02500
Br477      Br  0.62674643  0.30912393  0.64835022    -0.01000
Br478      Br  0.62295961  0.30660641  0.74515143    -0.01100
Br479      Br  0.74346332  0.18785413  0.65916301    -0.01100
Br480      Br  0.74394902  0.18840005  0.75608990    -0.01000
In481      In  0.68816065  0.75110604  0.36394566     1.36900
C482        C  0.73333996  0.69277439  0.37830851     0.77300
O483        O  0.64543958  0.73412541  0.41662823    -0.61200
O484        O  0.61378078  0.76817199  0.37373411    -0.52100
C485        C  0.72681562  0.81004001  0.38159146     0.69900
O486        O  0.73147693  0.78317156  0.40353479    -0.47000
C487        C  0.68527970  0.74870547  0.28632262     0.74600
O488        O  0.75139163  0.72104610  0.38549929    -0.58800
O489        O  0.64877711  0.74628229  0.30700746    -0.48900
O490        O  0.69174654  0.69451660  0.36499641    -0.55200
C491        C  0.61002299  0.75187162  0.40655458     0.84800
O492        O  0.70353668  0.80628879  0.35070140    -0.57100
O493        O  0.72305077  0.75243760  0.30530393    -0.60400
In494      In  0.69009807  0.75070163  0.03928430     1.36900
C495        C  0.73106677  0.80995527  0.01866409     0.77300
O496        O  0.65086791  0.76253750  0.48274307    -0.61200
O497        O  0.61340937  0.74051988  0.03142346    -0.52100
C498        C  0.72692551  0.69018406  0.02764462     0.69900
O499        O  0.75180438  0.71561175  0.03475587    -0.47000
C500        C  0.68659197  0.74934728  0.11723815     0.74600
O501        O  0.74394198  0.78246021  0.00532647    -0.58800
O502        O  0.65080899  0.75437247  0.09551563    -0.48900
O503        O  0.69630242  0.80712741  0.04116717    -0.55200
C504        C  0.61209238  0.75114744  0.49578090     0.84800
O505        O  0.68359357  0.69620757  0.02505707    -0.57100
O506        O  0.72401899  0.74522420  0.09895400    -0.60400
C507        C  0.56804030  0.75066110  0.47206533     0.02000
C508        C  0.56706959  0.75289667  0.43054595     0.01900
C509        C  0.52346363  0.75466408  0.41083935    -0.18600
C510        C  0.48071190  0.75300099  0.43109625     0.02000
C511        C  0.48165725  0.75074991  0.47258870     0.01900
C512        C  0.52525861  0.74913537  0.49227219    -0.18600
H513        H  0.52582746  0.74786414  0.02398608     0.04000
H514        H  0.52286218  0.75578795  0.37912871     0.04000
In515      In  0.35870774  0.74777702  0.36488324     1.36900
C516        C  0.31658553  0.80433264  0.38493139     0.77300
O517        O  0.39908950  0.73817142  0.42082514    -0.61200
O518        O  0.43421418  0.76250972  0.37217867    -0.52100
C519        C  0.32145782  0.68623428  0.38062688     0.69900
O520        O  0.29693779  0.71221646  0.37117877    -0.47000
C521        C  0.36322401  0.74627605  0.28703086     0.74600
O522        O  0.30392891  0.77508631  0.39812182    -0.58800
O523        O  0.39829090  0.74022516  0.30927574    -0.48900
O524        O  0.35119015  0.80464587  0.36236875    -0.55200
C525        C  0.43665457  0.75147197  0.40765673     0.84800
O526        O  0.36492711  0.69223194  0.38286841    -0.57100
O527        O  0.32614496  0.75277824  0.30471770    -0.60400
In528      In  0.36116153  0.75077798  0.04014530     1.36900
C529        C  0.31354919  0.69468979  0.02226774     0.77300
O530        O  0.40185928  0.76708466  0.48602915    -0.61200
O531        O  0.43628405  0.73600088  0.03020976    -0.52100
C532        C  0.32617406  0.81389823  0.02975077     0.69900
O533        O  0.31643475  0.79084289  0.00711285    -0.47000
C534        C  0.36444809  0.74634188  0.11807656     0.74600
O535        O  0.29661283  0.72420346  0.01697766    -0.58800
O536        O  0.40092088  0.75007647  0.09754716    -0.48900
O537        O  0.35493469  0.69419646  0.03573545    -0.55200
C538        C  0.43866772  0.75114974  0.49667227     0.84800
O539        O  0.35519227  0.80470684  0.05648867    -0.57100
O540        O  0.32655994  0.74396726  0.09880094    -0.60400
In541      In  0.85839462  0.00046517  0.36451950     1.36900
C542        C  0.82266710  0.56167738  0.37696803     0.77300
O543        O  0.89902008  0.98717801  0.42004215    -0.61200
O544        O  0.93588065  0.51103109  0.37253115    -0.52100
C545        C  0.81305289  0.94190036  0.38181806     0.69900
O546        O  0.79553965  0.97045358  0.38778296    -0.47000
C547        C  0.86080236  0.49839549  0.28709675     0.74600
O548        O  0.82104423  0.53681439  0.40213875    -0.58800
O549        O  0.89767004  0.49834601  0.30815297    -0.48900
O550        O  0.84232903  0.55499697  0.34584931    -0.55200
C551        C  0.93745246  0.99930722  0.40771343     0.84800
O552        O  0.85340693  0.94371454  0.36691635    -0.57100
O553        O  0.82281352  0.99879066  0.30582635    -0.60400
In554      In  0.85881312  0.49954951  0.03927799     1.36900
C555        C  0.82068061  0.94064432  0.01967757     0.77300
O556        O  0.90005874  0.51611769  0.48548253    -0.61200
O557        O  0.93408952  0.98522918  0.03023367    -0.52100
C558        C  0.81456048  0.55850656  0.02713347     0.69900
O559        O  0.79473968  0.53035802  0.02224194    -0.47000
C560        C  0.86111112  0.99954999  0.11746720     0.74600
O561        O  0.81357468  0.96834854  0.99973467    -0.58800
O562        O  0.89745519  0.00404169  0.09687881    -0.48900
O563        O  0.84688057  0.94348689  0.04916010    -0.55200
C564        C  0.93689618  0.00047872  0.49672420     0.84800
O565        O  0.85744187  0.55640159  0.03697047    -0.57100
O566        O  0.82396391  0.49516207  0.09792345    -0.60400
C567        C  0.98047833  0.00035547  0.47345054     0.02000
C568        C  0.98093235  0.99971405  0.43207653     0.01900
C569        C  0.02441396  0.99892571  0.41306038    -0.18600
C570        C  0.06744030  0.99893142  0.43379859     0.02000
C571        C  0.06662787  0.00038889  0.47503981     0.01900
C572        C  0.02332668  0.00096017  0.49403112    -0.18600
H573        H  0.02298021  0.00172021  0.02570529     0.04000
H574        H  0.02472559  0.99817326  0.38141680     0.04000
In575      In  0.18954080  0.49618738  0.36888686     1.36900
C576        C  0.22873458  0.93528076  0.38820737     0.77300
O577        O  0.15070170  0.50910822  0.42252930    -0.61200
O578        O  0.11266677  0.98608515  0.37775358    -0.52100
C579        C  0.23186982  0.55470913  0.38231675     0.69900
O580        O  0.24432056  0.52669182  0.39941122    -0.47000
C581        C  0.18126105  0.99580517  0.29093493     0.74600
O582        O  0.25203456  0.96061712  0.37471175    -0.58800
O583        O  0.14692685  0.00141446  0.31243566    -0.48900
O584        O  0.18622789  0.94174411  0.39425650    -0.55200
C585        C  0.11156829  0.99796077  0.41100655     0.84800
O586        O  0.19743804  0.55282884  0.35903352    -0.57100
O587        O  0.21955464  0.49087890  0.30924764    -0.60400
In588      In  0.18667679  0.00169876  0.04448936     1.36900
C589        C  0.22309743  0.56357623  0.02584026     0.77300
O590        O  0.14524047  0.98326691  0.49394901    -0.61200
O591        O  0.11255524  0.51781733  0.02935816    -0.52100
C592        C  0.23360566  0.94469347  0.03412275     0.69900
O593        O  0.25040776  0.97388905  0.02463432    -0.47000
C594        C  0.17923345  0.49644442  0.12204700     0.74600
O595        O  0.22358553  0.54025248  0.00249237    -0.58800
O596        O  0.14360950  0.49847470  0.09953481    -0.48900
O597        O  0.20505647  0.55483392  0.05824483    -0.55200
C598        C  0.10942760  0.00065039  0.49980717     0.84800
O599        O  0.19333461  0.94499021  0.04918434    -0.57100
O600        O  0.21822583  0.99609622  0.10483832    -0.60400
C601        C  0.19727568  0.96765046  0.22919594    -0.02200
C602        C  0.17742467  0.99495923  0.24782640     0.07500
C603        C  0.15595693  0.52201545  0.22497612    -0.02300
C604        C  0.15529906  0.52207838  0.18377783    -0.02300
C605        C  0.17612231  0.99510557  0.16521903     0.07600
C606        C  0.19681594  0.96782933  0.18807573    -0.02500
Br607      Br  0.22402591  0.93028614  0.16297514    -0.01000
Br608      Br  0.22404700  0.92928016  0.25994235    -0.01100
Br609      Br  0.12939216  0.56059702  0.15279026    -0.01100
Br610      Br  0.13093279  0.56046390  0.24981226    -0.01000
C611        C  0.88791011  0.52325454  0.22159969    -0.02200
C612        C  0.86182548  0.49835224  0.24383385     0.07500
C613        C  0.83583155  0.97381546  0.22457211    -0.02300
C614        C  0.83595111  0.97405344  0.18339596    -0.02300
C615        C  0.86172883  0.99912809  0.16096176     0.07600
C616        C  0.88754786  0.52384885  0.18034677    -0.02500
Br617      Br  0.91993224  0.56014158  0.15062629    -0.01000
Br618      Br  0.92229474  0.55780217  0.24752902    -0.01100
Br619      Br  0.80259299  0.93858943  0.15819770    -0.01100
Br620      Br  0.80200020  0.93853799  0.25480777    -0.01000
C621        C  0.28822980  0.60267520  0.00174449    -0.02200
C622        C  0.24271556  0.59823178  0.01724057     0.07500
C623        C  0.21780787  0.62685317  0.02855844    -0.02300
C624        C  0.23970415  0.65909018  0.02758646    -0.02300
C625        C  0.28695898  0.66293185  0.01550213     0.07600
C626        C  0.31020704  0.63489798  0.00078551    -0.02500
Br627      Br  0.37242292  0.64033434  0.97911761    -0.01000
Br628      Br  0.32264622  0.56406357  0.98536850    -0.01100
Br629      Br  0.20534279  0.69710475  0.04564923    -0.01100
Br630      Br  0.15348967  0.62195341  0.04601166    -0.01000
C631        C  0.25702330  0.85275005  0.01326032    -0.02200
C632        C  0.30419400  0.84840492  0.02661417     0.07500
C633        C  0.32891585  0.87686117  0.03986757    -0.02300
C634        C  0.30599894  0.90838631  0.04191517    -0.02300
C635        C  0.25896606  0.91246475  0.02891962     0.07600
C636        C  0.23513889  0.88482659  0.01340764    -0.02500
Br637      Br  0.17230327  0.89088432  0.99174262    -0.01000
Br638      Br  0.21972448  0.81445143  0.99836936    -0.01100
Br639      Br  0.33800523  0.94514779  0.06587554    -0.01100
Br640      Br  0.39456428  0.87350890  0.05519560    -0.01000
C641        C  0.31522503  0.86253027  0.40993095    -0.02200
C642        C  0.29138740  0.83576967  0.39285948     0.07500
C643        C  0.24494989  0.84055224  0.37883849    -0.01100
C644        C  0.22392169  0.87287513  0.37846925    -0.02300
C645        C  0.24869833  0.90043230  0.39350913     0.07600
C646        C  0.29393432  0.89481259  0.41037316    -0.02500
Br647      Br  0.32689912  0.93119275  0.43402731    -0.01000
Br648      Br  0.37675215  0.85446884  0.43322552    -0.01100
Br649      Br  0.16342820  0.87981365  0.35273849    -0.01100
Br650      Br  0.21134078  0.80330274  0.35728232    -0.01000
C651        C  0.25463808  0.64704370  0.40114001    -0.02200
C652        C  0.30095888  0.65150868  0.38683214     0.07500
C653        C  0.32625369  0.62272513  0.37602036    -0.02300
C654        C  0.30408915  0.59066882  0.37659859    -0.02300
C655        C  0.25668606  0.58707244  0.38756438     0.07600
C656        C  0.23236540  0.61504011  0.40078402    -0.02500
Br657      Br  0.16852823  0.60927710  0.41878440    -0.01000
Br658      Br  0.22187196  0.68411678  0.42290041    -0.01100
Br659      Br  0.33766961  0.55200846  0.35927500    -0.01100
Br660      Br  0.39034845  0.62652693  0.35777496    -0.01000
C661        C  0.38946527  0.72072314  0.18424059    -0.02200
C662        C  0.36555078  0.74640838  0.16119816     0.07500
C663        C  0.34267004  0.77263018  0.17937077    -0.02300
C664        C  0.34287799  0.77289605  0.22041540    -0.02300
C665        C  0.36518013  0.74646703  0.24375288     0.07600
C666        C  0.38877882  0.72043409  0.22544884    -0.02500
Br667      Br  0.41797059  0.68320491  0.25642728    -0.01000
Br668      Br  0.42193761  0.68535637  0.15924966    -0.01100
Br669      Br  0.31505780  0.81095925  0.24425152    -0.01100
Br670      Br  0.31305449  0.80940417  0.14786769    -0.01000
C671        C  0.80452917  0.84515979  0.01810354    -0.02200
C672        C  0.75578012  0.84278580  0.01058088     0.07500
C673        C  0.72995642  0.87251333  0.99959750    -0.02300
C674        C  0.75194052  0.90473595  0.99902813    -0.02300
C675        C  0.79972607  0.90736219  0.01065972     0.07600
C676        C  0.82642409  0.87729354  0.01805038    -0.02500
Br677      Br  0.89350614  0.87979047  0.02784477    -0.01000
Br678      Br  0.84080985  0.80466811  0.03245000    -0.01100
Br679      Br  0.71515734  0.94489052  0.98467416    -0.01100
Br680      Br  0.66392285  0.86897561  0.98626150    -0.01000
C681        C  0.72456299  0.62691567  0.04237617    -0.02200
C682        C  0.74673946  0.65592290  0.02397065     0.07500
C683        C  0.78883036  0.65213418  0.00334511    -0.02300
C684        C  0.81009187  0.61995185  0.00304235    -0.02300
C685        C  0.78938429  0.59134813  0.02330721     0.07600
C686        C  0.74587434  0.59474758  0.04205809    -0.02500
Br687      Br  0.71660755  0.55589348  0.06987213    -0.01000
Br688      Br  0.66643039  0.63099151  0.07047191    -0.01100
Br689      Br  0.86666677  0.61492526  0.47338146    -0.01100
Br690      Br  0.81646717  0.69071145  0.47389645    -0.01000
C691        C  0.73642598  0.63081122  0.40024583    -0.02200
C692        C  0.75905390  0.66014606  0.38336356     0.07500
C693        C  0.80485020  0.65755416  0.36841658    -0.02300
C694        C  0.82637041  0.62546019  0.36772801    -0.02300
C695        C  0.80255610  0.59572023  0.38250124     0.07600
C696        C  0.75821884  0.59874978  0.40017313    -0.02500
Br697      Br  0.72529968  0.55901515  0.42223632    -0.01000
Br698      Br  0.67540904  0.63449262  0.42388386    -0.01100
Br699      Br  0.88916657  0.62274445  0.34706415    -0.01100
Br700      Br  0.83737451  0.69754993  0.34635947    -0.01000
C701        C  0.79377522  0.84685196  0.40287149    -0.02200
C702        C  0.74657003  0.84353494  0.39045206     0.07500
C703        C  0.71888365  0.87297860  0.38293382    -0.02300
C704        C  0.73962086  0.90552309  0.38274035    -0.02300
C705        C  0.78846461  0.90878999  0.39018611     0.07600
C706        C  0.81469354  0.87939668  0.40262205    -0.02500
Br707      Br  0.87945712  0.88343736  0.41964860    -0.01000
Br708      Br  0.83092871  0.80699907  0.41799155    -0.01100
Br709      Br  0.70079319  0.94492793  0.36959062    -0.01100
Br710      Br  0.65190149  0.86865434  0.37348182    -0.01000
C711        C  0.65795836  0.77242555  0.22022067    -0.02200
C712        C  0.68404721  0.74785944  0.24319080     0.07500
C713        C  0.71010091  0.72323965  0.22479691    -0.02300
C714        C  0.71030488  0.72333295  0.18363161    -0.02300
C715        C  0.68502455  0.74845799  0.16054795     0.07600
C716        C  0.65882309  0.77299576  0.17906728    -0.02500
Br717      Br  0.62674615  0.80912391  0.14835022    -0.01000
Br718      Br  0.62295963  0.80660642  0.24515156    -0.01100
Br719      Br  0.74346300  0.68785408  0.15916296    -0.01100
Br720      Br  0.74394875  0.68839999  0.25608984    -0.01000
In721      In  0.68816062  0.75110606  0.86394571     1.36900
C722        C  0.73333990  0.69277439  0.87830855     0.77300
O723        O  0.64543952  0.73412549  0.91662827    -0.61200
O724        O  0.61378078  0.76817209  0.87373413    -0.52100
C725        C  0.72681560  0.81004002  0.88159149     0.69900
O726        O  0.73147690  0.78317158  0.90353484    -0.47000
C727        C  0.68527970  0.74870553  0.78632266     0.74600
O728        O  0.75139156  0.72104611  0.88549935    -0.58800
O729        O  0.64877710  0.74628246  0.80700749    -0.48900
O730        O  0.69174646  0.69451662  0.86499647    -0.55200
C731        C  0.61002296  0.75187171  0.90655463     0.84800
O732        O  0.70353668  0.80628879  0.85070142    -0.57100
O733        O  0.72305079  0.75243753  0.80530399    -0.60400
In734      In  0.69009812  0.75070162  0.53928427     1.36900
C735        C  0.73106677  0.80995532  0.51866409     0.77300
O736        O  0.65086787  0.76253745  0.98274309    -0.61200
O737        O  0.61340949  0.74051976  0.53142341    -0.52100
C738        C  0.72692555  0.69018408  0.52764456     0.69900
O739        O  0.75180442  0.71561179  0.53475570    -0.47000
C740        C  0.68659214  0.74934727  0.61723817     0.74600
O741        O  0.74394207  0.78246026  0.50532652    -0.58800
O742        O  0.65080916  0.75437247  0.59551565    -0.48900
O743        O  0.69630234  0.80712743  0.54116709    -0.55200
C744        C  0.61209229  0.75114749  0.99578092     0.84800
O745        O  0.68359361  0.69620756  0.52505706    -0.57100
O746        O  0.72401914  0.74522417  0.59895400    -0.60400
C747        C  0.56804019  0.75066118  0.97206537     0.02000
C748        C  0.56706952  0.75289678  0.93054591     0.01900
C749        C  0.52346357  0.75466417  0.91083954    -0.18600
C750        C  0.48071184  0.75300106  0.93109618     0.02000
C751        C  0.48165715  0.75074996  0.97258871     0.01900
C752        C  0.52525848  0.74913543  0.99227207    -0.18600
H753        H  0.52582760  0.74786412  0.52398568     0.04000
H754        H  0.52286211  0.75578810  0.87912796     0.04000
In755      In  0.35870765  0.74777713  0.86488328     1.36900
C756        C  0.31658544  0.80433272  0.88493149     0.77300
O757        O  0.39908951  0.73817135  0.92082507    -0.61200
O758        O  0.43421406  0.76250997  0.87217873    -0.52100
C759        C  0.32145759  0.68623439  0.88062677     0.69900
O760        O  0.29693759  0.71221663  0.87117883    -0.47000
C761        C  0.36322400  0.74627610  0.78703093     0.74600
O762        O  0.30392903  0.77508640  0.89812214    -0.58800
O763        O  0.39829088  0.74022526  0.80927584    -0.48900
O764        O  0.35118985  0.80464595  0.86236863    -0.55200
C765        C  0.43665450  0.75147206  0.90765675     0.84800
O766        O  0.36492690  0.69223200  0.88286818    -0.57100
O767        O  0.32614494  0.75277834  0.80471773    -0.60400
In768      In  0.36116167  0.75077798  0.54014537     1.36900
C769        C  0.31354927  0.69468981  0.52226771     0.77300
O770        O  0.40185904  0.76708454  0.98602900    -0.61200
O771        O  0.43628416  0.73600078  0.53020977    -0.52100
C772        C  0.32617425  0.81389827  0.52975086     0.69900
O773        O  0.31643514  0.79084297  0.50711283    -0.47000
C774        C  0.36444823  0.74634189  0.61807664     0.74600
O775        O  0.29661299  0.72420351  0.51697755    -0.58800
O776        O  0.40092103  0.75007651  0.59754725    -0.48900
O777        O  0.35493470  0.69419645  0.53573555    -0.55200
C778        C  0.43866756  0.75114975  0.99667219     0.84800
O779        O  0.35519227  0.80470684  0.55648888    -0.57100
O780        O  0.32656008  0.74396730  0.59880099    -0.60400
In781      In  0.85839461  0.00046517  0.86451943     1.36900
C782        C  0.82266707  0.56167738  0.87696799     0.77300
O783        O  0.89902012  0.98717788  0.92004202    -0.61200
O784        O  0.93588057  0.51103117  0.87253118    -0.52100
C785        C  0.81305286  0.94190039  0.88181804     0.69900
O786        O  0.79553961  0.97045361  0.88778292    -0.47000
C787        C  0.86080237  0.49839552  0.78709669     0.74600
O788        O  0.82104419  0.53681439  0.90213872    -0.58800
O789        O  0.89767003  0.49834613  0.80815293    -0.48900
O790        O  0.84232902  0.55499698  0.84584927    -0.55200
C791        C  0.93745243  0.99930724  0.90771335     0.84800
O792        O  0.85340690  0.94371456  0.86691633    -0.57100
O793        O  0.82281359  0.99879052  0.80582627    -0.60400
In794      In  0.85881323  0.49954958  0.53927791     1.36900
C795        C  0.82068063  0.94064438  0.51967752     0.77300
O796        O  0.90005857  0.51611761  0.98548257    -0.61200
O797        O  0.93408957  0.98522919  0.53023370    -0.52100
C798        C  0.81456051  0.55850661  0.52713345     0.69900
O799        O  0.79473978  0.53035807  0.52224177    -0.47000
C800        C  0.86111124  0.99954994  0.61746715     0.74600
O801        O  0.81357472  0.96834860  0.49973463    -0.58800
O802        O  0.89745528  0.00404177  0.59687878    -0.48900
O803        O  0.84688057  0.94348693  0.54916007    -0.55200
C804        C  0.93689609  0.00047867  0.99672413     0.84800
O805        O  0.85744187  0.55640165  0.53697057    -0.57100
O806        O  0.82396409  0.49516195  0.59792337    -0.60400
C807        C  0.98047827  0.00035546  0.97345051     0.02000
C808        C  0.98093231  0.99971405  0.93207646     0.01900
C809        C  0.02441392  0.99892576  0.91306034    -0.18600
C810        C  0.06744025  0.99893145  0.93379854     0.02000
C811        C  0.06662783  0.00038890  0.97503979     0.01900
C812        C  0.02332663  0.00096020  0.99403097    -0.18600
H813        H  0.02298028  0.00172014  0.52570496     0.04000
H814        H  0.02472557  0.99817334  0.88141670     0.04000
In815      In  0.18954072  0.49618740  0.86888692     1.36900
C816        C  0.22873448  0.93528086  0.88820746     0.77300
O817        O  0.15070162  0.50910832  0.92252934    -0.61200
O818        O  0.11266671  0.98608522  0.87775351    -0.52100
C819        C  0.23186970  0.55470917  0.88231682     0.69900
O820        O  0.24432042  0.52669189  0.89941135    -0.47000
C821        C  0.18126103  0.99580519  0.79093482     0.74600
O822        O  0.25203450  0.96061724  0.87471194    -0.58800
O823        O  0.14692685  0.00141457  0.81243554    -0.48900
O824        O  0.18622774  0.94174418  0.89425642    -0.55200
C825        C  0.11156824  0.99796084  0.91100649     0.84800
O826        O  0.19743799  0.55282885  0.85903353    -0.57100
O827        O  0.21955464  0.49087897  0.80924771    -0.60400
In828      In  0.18667687  0.00169870  0.54448937     1.36900
C829        C  0.22309742  0.56357626  0.52584017     0.77300
O830        O  0.14524052  0.98326700  0.99394890    -0.61200
O831        O  0.11255530  0.51781720  0.52935824    -0.52100
C832        C  0.23360573  0.94469346  0.53412280     0.69900
O833        O  0.25040782  0.97388903  0.52463435    -0.47000
C834        C  0.17923365  0.49644442  0.62204700     0.74600
O835        O  0.22358551  0.54025250  0.50249228    -0.58800
O836        O  0.14360970  0.49847479  0.59953481    -0.48900
O837        O  0.20505655  0.55483393  0.55824475    -0.55200
C838        C  0.10942758  0.00065037  0.99980712     0.84800
O839        O  0.19333465  0.94499017  0.54918436    -0.57100
O840        O  0.21822595  0.99609612  0.60483831    -0.60400
C841        C  0.19727567  0.96765042  0.72919589    -0.02200
C842        C  0.17742466  0.99495922  0.74782629     0.07500
C843        C  0.15595705  0.52201550  0.72497609    -0.02300
C844        C  0.15529917  0.52207838  0.68377779    -0.02300
C845        C  0.17612238  0.99510548  0.66521895     0.07600
C846        C  0.19681601  0.96782927  0.68807568    -0.02500
Br847      Br  0.22402590  0.93028598  0.66297517    -0.01000
Br848      Br  0.22404704  0.92928017  0.75994238    -0.01100
Br849      Br  0.12939212  0.56059692  0.65279011    -0.01100
Br850      Br  0.13093309  0.56046401  0.74981222    -0.01000
C851        C  0.88791012  0.52325461  0.72159957    -0.02200
C852        C  0.86182553  0.49835229  0.74383376     0.07500
C853        C  0.83583161  0.97381548  0.72457202    -0.02300
C854        C  0.83595117  0.97405344  0.68339589    -0.02300
C855        C  0.86172894  0.99912804  0.66096169     0.07600
C856        C  0.88754793  0.52384888  0.68034664    -0.02500
Br857      Br  0.91993216  0.56014166  0.65062613    -0.01000
Br858      Br  0.92229471  0.55780229  0.74752885    -0.01100
Br859      Br  0.80259292  0.93858947  0.65819767    -0.01100
Br860      Br  0.80200011  0.93853805  0.75480764    -0.01000
C861        C  0.28822982  0.60267519  0.50174446    -0.02200
C862        C  0.24271555  0.59823180  0.51724046     0.07500
C863        C  0.21780785  0.62685322  0.52855829    -0.02300
C864        C  0.23970418  0.65909021  0.52758638    -0.02300
C865        C  0.28695903  0.66293186  0.51550209     0.07600
C866        C  0.31020709  0.63489795  0.50078552    -0.02500
Br867      Br  0.37242293  0.64033427  0.47911760    -0.01000
Br868      Br  0.32264619  0.56406353  0.48536848    -0.01100
Br869      Br  0.20534278  0.69710484  0.54564898    -0.01100
Br870      Br  0.15348962  0.62195350  0.54601145    -0.01000
C871        C  0.25702358  0.85275014  0.51326018    -0.02200
C872        C  0.30419420  0.84840498  0.52661422     0.07500
C873        C  0.32891596  0.87686121  0.53986780    -0.02300
C874        C  0.30599902  0.90838634  0.54191537    -0.02300
C875        C  0.25896619  0.91246477  0.52891970     0.07600
C876        C  0.23513914  0.88482667  0.51340752    -0.02500
Br877      Br  0.17230365  0.89088445  0.49174226    -0.01000
Br878      Br  0.21972485  0.81445154  0.49836899    -0.01100
Br879      Br  0.33800516  0.94514780  0.56587587    -0.01100
Br880      Br  0.39456433  0.87350895  0.55519596    -0.01000
C881        C  0.31522498  0.86253038  0.90993095    -0.02200
C882        C  0.29138730  0.83576975  0.89285961     0.07500
C883        C  0.24494975  0.84055230  0.87883871    -0.01100
C884        C  0.22392157  0.87287521  0.87846943    -0.02300
C885        C  0.24869824  0.90043240  0.89350924     0.07600
C886        C  0.29393428  0.89481269  0.91037316    -0.02500
Br887      Br  0.32689916  0.93119289  0.93402713    -0.01000
Br888      Br  0.37675220  0.85446898  0.93322533    -0.01100
Br889      Br  0.16342804  0.87981370  0.85273875    -0.01100
Br890      Br  0.21134042  0.80330272  0.85728292    -0.01000
C891        C  0.25463787  0.64704375  0.90114001    -0.02200
C892        C  0.30095861  0.65150879  0.88683199     0.07500
C893        C  0.32625338  0.62272526  0.87602004    -0.02300
C894        C  0.30408891  0.59066892  0.87659843    -0.02300
C895        C  0.25668592  0.58707249  0.88756442     0.07600
C896        C  0.23236527  0.61504013  0.90078413    -0.02500
Br897      Br  0.16852822  0.60927698  0.91878475    -0.01000
Br898      Br  0.22187171  0.68411681  0.92290042    -0.01100
Br899      Br  0.33766930  0.55200856  0.85927474    -0.01100
Br900      Br  0.39034797  0.62652711  0.85777420    -0.01000
C901        C  0.38946534  0.72072308  0.68424070    -0.02200
C902        C  0.36555088  0.74640834  0.66119824     0.07500
C903        C  0.34267016  0.77263017  0.67937084    -0.02300
C904        C  0.34287806  0.77289605  0.72041546    -0.02300
C905        C  0.36518013  0.74646701  0.74375297     0.07600
C906        C  0.38877881  0.72043404  0.72544896    -0.02500
Br907      Br  0.41797050  0.68320486  0.75642748    -0.01000
Br908      Br  0.42193780  0.68535633  0.65924980    -0.01100
Br909      Br  0.31505782  0.81095928  0.74425154    -0.01100
Br910      Br  0.31305482  0.80940426  0.64786775    -0.01000
C911        C  0.80452918  0.84515986  0.51810347    -0.02200
C912        C  0.75578010  0.84278587  0.51058092     0.07500
C913        C  0.72995639  0.87251339  0.49959755    -0.02300
C914        C  0.75194052  0.90473600  0.49902810    -0.02300
C915        C  0.79972609  0.90736226  0.51065965     0.07600
C916        C  0.82642411  0.87729361  0.51805029    -0.02500
Br917      Br  0.89350613  0.87979054  0.52784479    -0.01000
Br918      Br  0.84080988  0.80466817  0.53244981    -0.01100
Br919      Br  0.71515735  0.94489054  0.48467408    -0.01100
Br920      Br  0.66392284  0.86897571  0.48626147    -0.01000
C921        C  0.72456303  0.62691571  0.54237619    -0.02200
C922        C  0.74673949  0.65592293  0.52397063     0.07500
C923        C  0.78883041  0.65213421  0.50334512    -0.02300
C924        C  0.81009191  0.61995188  0.50304236    -0.02300
C925        C  0.78938432  0.59134817  0.52330723     0.07600
C926        C  0.74587439  0.59474763  0.54205814    -0.02500
Br927      Br  0.71660759  0.55589354  0.56987218    -0.01000
Br928      Br  0.66643045  0.63099158  0.57047194    -0.01100
Br929      Br  0.86666675  0.61492531  0.97338153    -0.01100
Br930      Br  0.81646702  0.69071139  0.97389629    -0.01000
C931        C  0.73642591  0.63081117  0.90024575    -0.02200
C932        C  0.75905385  0.66014605  0.88336358     0.07500
C933        C  0.80485021  0.65755418  0.86841670    -0.02300
C934        C  0.82637038  0.62546020  0.86772803    -0.02300
C935        C  0.80255606  0.59572021  0.88250118     0.07600
C936        C  0.75821879  0.59874974  0.90017307    -0.02500
Br937      Br  0.72529970  0.55901508  0.92223632    -0.01000
Br938      Br  0.67540890  0.63449250  0.92388369    -0.01100
Br939      Br  0.88916655  0.62274450  0.84706422    -0.01100
Br940      Br  0.83737470  0.69754999  0.84635987    -0.01000
C941        C  0.79377524  0.84685196  0.90287143    -0.02200
C942        C  0.74657002  0.84353495  0.89045206     0.07500
C943        C  0.71888364  0.87297861  0.88293385    -0.02300
C944        C  0.73962084  0.90552310  0.88274035    -0.02300
C945        C  0.78846459  0.90879002  0.89018610     0.07600
C946        C  0.81469355  0.87939669  0.90262199    -0.02500
Br947      Br  0.87945707  0.88343741  0.91964865    -0.01000
Br948      Br  0.83092874  0.80699903  0.91799133    -0.01100
Br949      Br  0.70079315  0.94492795  0.86959068    -0.01100
Br950      Br  0.65190147  0.86865427  0.87348189    -0.01000
C951        C  0.65795836  0.77242555  0.72022065    -0.02200
C952        C  0.68404723  0.74785948  0.74319083     0.07500
C953        C  0.71010104  0.72323972  0.72479696    -0.02300
C954        C  0.71030510  0.72333302  0.68363166    -0.02300
C955        C  0.68502473  0.74845801  0.66054796     0.07600
C956        C  0.65882320  0.77299577  0.67906727    -0.02500
Br957      Br  0.62674645  0.80912399  0.64835020    -0.01000
Br958      Br  0.62295961  0.80660649  0.74515144    -0.01100
Br959      Br  0.74346334  0.68785419  0.65916305    -0.01100
Br960      Br  0.74394878  0.68840005  0.75608993    -0.01000
loop_ 
_geom_bond_atom_site_label_1 
_geom_bond_atom_site_label_2 
_geom_bond_distance 
_geom_bond_site_symmetry_2 
_ccdc_geom_bond_type 
In1           O3   2.249       .  S
In1           O4   2.256       .  S
In1          O12   2.231       .  S
In1           O6   2.267       .  S
In1           O8   2.243       .  S
In1           O9   2.256       .  S
In1          O10   2.229       .  S
In1          O13   2.249       .  S
C2            O8   1.263       .  A
C2           O10   1.261       .  A
C2          C212   1.479       .  S
O3           C11   1.258       .  A
O4           C11   1.260       .  A
C5           O12   1.258       .  A
C5            O6   1.260       .  A
C5          C222   1.481       .  S
C7            O9   1.263       .  A
C7           O13   1.261       .  A
C7          C232   1.481       .  S
C11          C28   1.482       .  S
In14         O17   2.230       .  S
In14         O25   2.241       .  S
In14         O19   2.250       .  S
In14         O21   2.254       .  S
In14         O22   2.253       .  S
In14         O23   2.234       .  S
In14         O26   2.246       .  S
In14        O256   2.243   1_554  S
C15          O21   1.262       .  A
C15          O23   1.260       .  A
C15         C192   1.479       .  S
O16        In254   2.243       .  S
O16          C24   1.263       .  A
O17         C264   1.263   1_554  A
C18          O25   1.255       .  A
C18          O19   1.259       .  A
C18         C202   1.478       .  S
C20          O22   1.260       .  A
C20          O26   1.258       .  A
C20         C235   1.483       .  S
C24         O257   1.263       .  A
C24          C27   1.484       .  S
C27          C28   1.419       .  A
C27          C32   1.405       .  A
C28          C29   1.403       .  A
C29          C30   1.406       .  A
C29          H34   1.084       .  S
C30          C45   1.482       .  S
C30          C31   1.418       .  A
C31          C58   1.483       .  S
C31          C32   1.402       .  A
C32         H273   1.084       .  S
H33         C272   1.084   1_554  S
In35         O37   2.231       .  S
In35         O38   2.235       .  S
In35         O46   2.237       .  S
In35         O40   2.243       .  S
In35         O42   2.261       .  S
In35         O43   2.263       .  S
In35         O44   2.246       .  S
In35         O47   2.245       .  S
C36          O42   1.260       .  A
C36          O44   1.258       .  A
C36         C162   1.476       .  S
O37          C45   1.261       .  A
O38          C45   1.263       .  A
C39          O46   1.259       .  A
C39          O40   1.261       .  A
C39         C172   1.487       .  S
C41          O43   1.259       .  A
C41          O47   1.258       .  A
C41         C185   1.484       .  S
In48         O51   2.251       .  S
In48         O59   2.243       .  S
In48         O53   2.260       .  S
In48         O55   2.270       .  S
In48         O56   2.254       .  S
In48         O57   2.250       .  S
In48         O60   2.247       .  S
In48        O290   2.251   1_554  S
C49          O55   1.260       .  A
C49          O57   1.257       .  A
C49         C145   1.489       .  S
O50        In288   2.251       .  S
O50          C58   1.258       .  A
O51         C298   1.259   1_554  A
C52          O59   1.259       .  A
C52          O53   1.263       .  A
C52         C152   1.494       .  S
C54          O56   1.262       .  A
C54          O60   1.262       .  A
C54         C182   1.478       .  S
C58         O291   1.259       .  A
In61         O63   2.243       .  S
In61         O72   2.235       .  S
In61         O66   2.259       .  S
In61         O73   2.244       .  S
In61        O544   2.255       .  S
In61        O548   2.269       .  S
In61        O549   2.250       .  S
In61        O550   2.244       .  S
C62          O68   1.259       .  A
C62          O70   1.255       .  A
C62         C215   1.485       .  S
O63          C71   1.256       .  A
O64        In541   2.255       .  S
O64         C551   1.260   1_545  A
C65          O72   1.261       .  A
C65          O66   1.263       .  A
C65         C225   1.488       .  S
C67          O69   1.264       .  A
C67         O553   1.263       .  A
C67         C132   1.483       .  S
O68        In541   2.269       .  S
O69        In541   2.250   1_565  S
O70        In541   2.244       .  S
C71         O544   1.260       .  A
C71          C88   1.482       .  S
O73         C547   1.263       .  A
In74         O85   2.235   1_565  S
In74         O79   2.239   1_565  S
In74         O86   2.247       .  S
In74        O316   2.253   1_564  S
In74        O557   2.245       .  S
In74        O561   2.275   1_554  S
In74        O562   2.264   1_565  S
In74        O563   2.235       .  S
C75          O81   1.261   1_554  A
C75          O83   1.258       .  A
C75         C195   1.488       .  S
O76        In314   2.253   1_545  S
O76         C564   1.258       .  A
O77        In554   2.245       .  S
O77         C324   1.261   1_554  A
C78          O85   1.261       .  A
C78          O79   1.262       .  A
C78         C205   1.477       .  S
C80          O82   1.263       .  A
C80         O566   1.260       .  A
C80         C135   1.489       .  S
O81        In554   2.275   1_556  S
O82        In554   2.264       .  S
O83        In554   2.235       .  S
C84         O556   1.258       .  A
C84         O317   1.261       .  A
C84          C87   1.482       .  S
O86         C560   1.260       .  A
C87          C88   1.420       .  A
C87          C92   1.400   1_655  A
C88          C89   1.405   1_655  A
C89          C90   1.406       .  A
C89          H94   1.087       .  S
C90         C105   1.488       .  S
C90          C91   1.419       .  A
C91         C118   1.474       .  S
C91          C92   1.400       .  A
C92         H333   1.088       .  S
H93         C332   1.088   1_554  S
In95         O97   2.246   1_565  S
In95        O106   2.243   1_565  S
In95        O100   2.254   1_565  S
In95        O107   2.248       .  S
In95        O578   2.239       .  S
In95        O582   2.264       .  S
In95        O583   2.266   1_565  S
In95        O584   2.257       .  S
C96         O102   1.259       .  A
C96         O104   1.258       .  A
C96         C165   1.485       .  S
O97         C585   1.262   1_545  A
O98        In575   2.239       .  S
O98         C105   1.263       .  A
C99         O106   1.259       .  A
C99         O100   1.261       .  A
C99         C175   1.475       .  S
C101        O103   1.260       .  A
C101        O587   1.257       .  A
C101        C122   1.483       .  S
O102       In575   2.264       .  S
O103       In575   2.266       .  S
O104       In575   2.257       .  S
C105        O577   1.262       .  A
O107        C581   1.257       .  A
In108       O119   2.236       .  S
In108       O113   2.257       .  S
In108       O120   2.240       .  S
In108       O350   2.243   1_554  S
In108       O591   2.245       .  S
In108       O595   2.278       .  S
In108       O596   2.257       .  S
In108       O597   2.236       .  S
C109        O115   1.261       .  A
C109        O117   1.254       .  A
C109        C142   1.483       .  S
O110       In348   2.243       .  S
O110        C118   1.255       .  A
O111       In588   2.245       .  S
O111        C838   1.259   1_554  A
C112        O119   1.262       .  A
C112        O113   1.266       .  A
C112        C155   1.485       .  S
C114        O116   1.264       .  A
C114        O600   1.262       .  A
C114        C605   1.480       .  S
O115       In588   2.278       .  S
O116       In588   2.257   1_565  S
O117       In588   2.236       .  S
C118        O831   1.259       .  A
O120        C594   1.262       .  A
C121        C122   1.412       .  A
C121        C126   1.408       .  A
C121       Br128   1.932       .  S
C122        C603   1.412       .  A
C123        C124   1.411       .  A
C123        C602   1.412   1_545  A
C123       Br130   1.932       .  S
C124        C605   1.412   1_545  A
C124       Br129   1.931       .  S
C125        C594   1.480       .  S
C125        C126   1.409       .  A
C125        C604   1.412       .  A
C126       Br127   1.932       .  S
C131        C132   1.412   1_545  A
C131        C136   1.412       .  A
C131       Br138   1.932       .  S
C132        C613   1.410       .  A
C133        C134   1.410       .  A
C133        C612   1.410       .  A
C133       Br140   1.933       .  S
C134        C135   1.415       .  A
C134       Br139   1.932       .  S
C135        C616   1.415       .  A
C136        C615   1.415   1_545  A
C136       Br137   1.932       .  S
C141        C142   1.410       .  A
C141        C146   1.410       .  A
C141       Br148   1.932   1_554  S
C142        C143   1.413       .  A
C143        C144   1.410       .  A
C143       Br150   1.934       .  S
C144        C145   1.414       .  A
C144       Br149   1.933       .  S
C145        C146   1.416       .  A
C146       Br147   1.931   1_554  S
C151        C152   1.417       .  A
C151        C156   1.411       .  A
C151       Br158   1.934   1_554  S
C152        C153   1.419       .  A
C153        C154   1.411       .  A
C153       Br160   1.933       .  S
C154        C155   1.409       .  A
C154       Br159   1.933       .  S
C155        C156   1.412       .  A
C156       Br157   1.933   1_554  S
C161        C162   1.408       .  A
C161        C166   1.411       .  A
C161       Br168   1.930       .  S
C162        C163   1.407       .  A
C163        C164   1.408       .  A
C163       Br170   1.932       .  S
C164        C165   1.415       .  A
C164       Br169   1.933       .  S
C165        C166   1.414       .  A
C166       Br167   1.929       .  S
C171        C172   1.416       .  A
C171        C176   1.409       .  A
C171       Br178   1.934       .  S
C172        C173   1.419       .  A
C173        C174   1.407       .  A
C173       Br180   1.934       .  S
C174        C175   1.407       .  A
C174       Br179   1.933       .  S
C175        C176   1.408       .  A
C176       Br177   1.930       .  S
C181        C182   1.409       .  A
C181        C186   1.412       .  A
C181       Br188   1.930       .  S
C182        C183   1.409       .  A
C183        C184   1.407       .  A
C183       Br190   1.932       .  S
C184        C185   1.413       .  A
C184       Br189   1.934       .  S
C185        C186   1.415       .  A
C186       Br187   1.931       .  S
C191        C192   1.409       .  A
C191        C196   1.408       .  A
C191       Br198   1.933       .  S
C192        C193   1.410   1_554  A
C193        C194   1.411       .  A
C193       Br200   1.932       .  S
C194        C195   1.415   1_556  A
C194       Br199   1.930       .  S
C195        C196   1.415       .  A
C196       Br197   1.934       .  S
C201        C202   1.415       .  A
C201        C206   1.407       .  A
C201       Br208   1.935       .  S
C202        C203   1.411       .  A
C203        C204   1.407       .  A
C203       Br450   1.932   1_554  S
C204        C205   1.411       .  A
C204       Br449   1.931   1_554  S
C205        C206   1.412       .  A
C206       Br207   1.935       .  S
Br209       C444   1.931       .  S
Br210       C443   1.932       .  S
C211        C212   1.411       .  A
C211        C216   1.409       .  A
C211       Br218   1.933       .  S
C212        C213   1.411       .  A
C213        C214   1.408       .  A
C213       Br220   1.934       .  S
C214        C215   1.415       .  A
C214       Br219   1.934       .  S
C215        C216   1.414       .  A
C216       Br217   1.932       .  S
C221        C222   1.410       .  A
C221        C226   1.410       .  A
C221       Br228   1.931       .  S
C222        C223   1.410       .  A
C223        C224   1.408       .  A
C223       Br230   1.935       .  S
C224        C225   1.414       .  A
C224       Br229   1.931       .  S
C225        C226   1.416       .  A
C226       Br227   1.932       .  S
C231        C232   1.410       .  A
C231        C236   1.409       .  A
C231       Br238   1.931       .  S
C232        C233   1.411       .  A
C233        C234   1.410       .  A
C233       Br240   1.932       .  S
C234        C235   1.414       .  A
C234       Br239   1.934       .  S
C235        C236   1.413       .  A
C236       Br237   1.932       .  S
In241       O243   2.249       .  S
In241       O244   2.256       .  S
In241       O252   2.231       .  S
In241       O246   2.267       .  S
In241       O248   2.243       .  S
In241       O249   2.256       .  S
In241       O250   2.229       .  S
In241       O253   2.249       .  S
C242        O248   1.263       .  A
C242        O250   1.261       .  A
C242        C452   1.479       .  S
O243        C251   1.258       .  A
O244        C251   1.260       .  A
C245        O252   1.258       .  A
C245        O246   1.260       .  A
C245        C462   1.481       .  S
C247        O249   1.263       .  A
C247        O253   1.261       .  A
C247        C472   1.481       .  S
C251        C268   1.482       .  S
In254       O257   2.230       .  S
In254       O265   2.241       .  S
In254       O259   2.250       .  S
In254       O261   2.254       .  S
In254       O262   2.253       .  S
In254       O263   2.234       .  S
In254       O266   2.246       .  S
C255        O261   1.262       .  A
C255        O263   1.260       .  A
C255        C432   1.479       .  S
O256        C264   1.263       .  A
C258        O265   1.255       .  A
C258        O259   1.259       .  A
C258        C442   1.478       .  S
C260        O262   1.260       .  A
C260        O266   1.258       .  A
C260        C475   1.483       .  S
C264        C267   1.484       .  S
C267        C268   1.419       .  A
C267        C272   1.405       .  A
C268        C269   1.403       .  A
C269        C270   1.406       .  A
C269        H274   1.084       .  S
C270        C285   1.482       .  S
C270        C271   1.418       .  A
C271        C298   1.483       .  S
C271        C272   1.402       .  A
In275       O277   2.231       .  S
In275       O278   2.235       .  S
In275       O286   2.237       .  S
In275       O280   2.243       .  S
In275       O282   2.261       .  S
In275       O283   2.263       .  S
In275       O284   2.246       .  S
In275       O287   2.245       .  S
C276        O282   1.260       .  A
C276        O284   1.258       .  A
C276        C402   1.476       .  S
O277        C285   1.261       .  A
O278        C285   1.263       .  A
C279        O286   1.259       .  A
C279        O280   1.261       .  A
C279        C412   1.487       .  S
C281        O283   1.259       .  A
C281        O287   1.258       .  A
C281        C425   1.484       .  S
In288       O291   2.251       .  S
In288       O299   2.243       .  S
In288       O293   2.260       .  S
In288       O295   2.270       .  S
In288       O296   2.254       .  S
In288       O297   2.250       .  S
In288       O300   2.247       .  S
C289        O295   1.260       .  A
C289        O297   1.257       .  A
C289        C385   1.489       .  S
O290        C298   1.258       .  A
C292        O299   1.259       .  A
C292        O293   1.263       .  A
C292        C392   1.494       .  S
C294        O296   1.262       .  A
C294        O300   1.262       .  A
C294        C422   1.478       .  S
In301       O303   2.243       .  S
In301       O784   2.255       .  S
In301       O312   2.235       .  S
In301       O306   2.259       .  S
In301       O788   2.269       .  S
In301       O789   2.250       .  S
In301       O790   2.244       .  S
In301       O313   2.244       .  S
C302        O308   1.259       .  A
C302        O310   1.255       .  A
C302        C455   1.485       .  S
O303        C311   1.256       .  A
O304       In781   2.255       .  S
O304        C791   1.260   1_545  A
C305        O312   1.261       .  A
C305        O306   1.263       .  A
C305        C465   1.488       .  S
C307        O309   1.264       .  A
C307        O793   1.263       .  A
C307        C372   1.483       .  S
O308       In781   2.269       .  S
O309       In781   2.250   1_565  S
O310       In781   2.244       .  S
C311        O784   1.260       .  A
C311        C328   1.482       .  S
O313        C787   1.263       .  A
In314       O797   2.245       .  S
In314       O325   2.235   1_565  S
In314       O319   2.239   1_565  S
In314       O801   2.275       .  S
In314       O802   2.264   1_565  S
In314       O803   2.235       .  S
In314       O326   2.247       .  S
C315        O321   1.261       .  A
C315        O323   1.258       .  A
C315        C435   1.488       .  S
O316        C804   1.258       .  A
O317       In794   2.245       .  S
C318        O325   1.261       .  A
C318        O319   1.262       .  A
C318        C445   1.477       .  S
C320        O322   1.263       .  A
C320        O806   1.260       .  A
C320        C375   1.489       .  S
O321       In794   2.275       .  S
O322       In794   2.264       .  S
O323       In794   2.235       .  S
C324        O796   1.258       .  A
C324        C327   1.482       .  S
O326        C800   1.260       .  A
C327        C328   1.420       .  A
C327        C332   1.400   1_655  A
C328        C329   1.405   1_655  A
C329        C330   1.406       .  A
C329        H334   1.087       .  S
C330        C345   1.488       .  S
C330        C331   1.419       .  A
C331        C358   1.474       .  S
C331        C332   1.400       .  A
In335       O337   2.246   1_565  S
In335       O818   2.239       .  S
In335       O346   2.243   1_565  S
In335       O340   2.254   1_565  S
In335       O822   2.264       .  S
In335       O823   2.266   1_565  S
In335       O824   2.257       .  S
In335       O347   2.248       .  S
C336        O342   1.259       .  A
C336        O344   1.258       .  A
C336        C405   1.485       .  S
O337        C825   1.262   1_545  A
O338       In815   2.239       .  S
O338        C345   1.263       .  A
C339        O346   1.259       .  A
C339        O340   1.261       .  A
C339        C415   1.475       .  S
C341        O343   1.260       .  A
C341        O827   1.257       .  A
C341        C362   1.483       .  S
O342       In815   2.264       .  S
O343       In815   2.266       .  S
O344       In815   2.257       .  S
C345        O817   1.262       .  A
O347        C821   1.257       .  A
In348       O831   2.245       .  S
In348       O359   2.236       .  S
In348       O353   2.257       .  S
In348       O835   2.278       .  S
In348       O836   2.257       .  S
In348       O837   2.236       .  S
In348       O360   2.240       .  S
C349        O355   1.261       .  A
C349        O357   1.254       .  A
C349        C382   1.483       .  S
O350        C358   1.255       .  A
O351       In828   2.245       .  S
O351        C598   1.259       .  A
C352        O359   1.262       .  A
C352        O353   1.266       .  A
C352        C395   1.485       .  S
C354        O356   1.264       .  A
C354        O840   1.262       .  A
C354        C845   1.480       .  S
O355       In828   2.278       .  S
O356       In828   2.257   1_565  S
O357       In828   2.236       .  S
C358        O591   1.259   1_556  A
O360        C834   1.262       .  A
C361        C362   1.412       .  A
C361        C366   1.408       .  A
C361       Br368   1.932       .  S
C362        C843   1.412       .  A
C363        C842   1.412   1_545  A
C363        C364   1.411       .  A
C363       Br370   1.932       .  S
C364        C845   1.412   1_545  A
C364       Br369   1.931       .  S
C365        C834   1.480       .  S
C365        C844   1.412       .  A
C365        C366   1.409       .  A
C366       Br367   1.932       .  S
C371        C372   1.412   1_545  A
C371        C376   1.412       .  A
C371       Br378   1.932       .  S
C372        C853   1.410       .  A
C373        C852   1.410       .  A
C373        C374   1.410       .  A
C373       Br380   1.933       .  S
C374        C375   1.415       .  A
C374       Br379   1.932       .  S
C375        C856   1.415       .  A
C376        C855   1.415   1_545  A
C376       Br377   1.932       .  S
C381        C382   1.410       .  A
C381        C386   1.410       .  A
C381       Br388   1.932       .  S
C382        C383   1.413       .  A
C383        C384   1.410       .  A
C383       Br390   1.934       .  S
C384        C385   1.414       .  A
C384       Br389   1.933       .  S
C385        C386   1.416       .  A
C386       Br387   1.931       .  S
C391        C392   1.417       .  A
C391        C396   1.411       .  A
C391       Br398   1.934       .  S
C392        C393   1.419       .  A
C393        C394   1.411       .  A
C393       Br400   1.933       .  S
C394        C395   1.409       .  A
C394       Br399   1.933       .  S
C395        C396   1.412       .  A
C396       Br397   1.933       .  S
C401        C402   1.408       .  A
C401        C406   1.411       .  A
C401       Br408   1.930       .  S
C402        C403   1.407       .  A
C403        C404   1.408       .  A
C403       Br410   1.932       .  S
C404        C405   1.415       .  A
C404       Br409   1.933       .  S
C405        C406   1.414       .  A
C406       Br407   1.929       .  S
C411        C412   1.416       .  A
C411        C416   1.409       .  A
C411       Br418   1.934       .  S
C412        C413   1.419       .  A
C413        C414   1.407       .  A
C413       Br420   1.934       .  S
C414        C415   1.407       .  A
C414       Br419   1.933       .  S
C415        C416   1.408       .  A
C416       Br417   1.930       .  S
C421        C422   1.409       .  A
C421        C426   1.412       .  A
C421       Br428   1.930       .  S
C422        C423   1.409       .  A
C423        C424   1.407       .  A
C423       Br430   1.932       .  S
C424        C425   1.413       .  A
C424       Br429   1.934       .  S
C425        C426   1.415       .  A
C426       Br427   1.931       .  S
C431        C432   1.409       .  A
C431        C436   1.408       .  A
C431       Br438   1.933       .  S
C432        C433   1.410       .  A
C433        C434   1.411       .  A
C433       Br440   1.932       .  S
C434        C435   1.415       .  A
C434       Br439   1.930       .  S
C435        C436   1.415       .  A
C436       Br437   1.934       .  S
C441        C442   1.415       .  A
C441        C446   1.407       .  A
C441       Br448   1.935       .  S
C442        C443   1.411       .  A
C443        C444   1.407       .  A
C444        C445   1.411       .  A
C445        C446   1.412       .  A
C446       Br447   1.935       .  S
C451        C452   1.411       .  A
C451        C456   1.409       .  A
C451       Br458   1.933       .  S
C452        C453   1.411       .  A
C453        C454   1.408       .  A
C453       Br460   1.934       .  S
C454        C455   1.415       .  A
C454       Br459   1.934       .  S
C455        C456   1.414       .  A
C456       Br457   1.932       .  S
C461        C462   1.410       .  A
C461        C466   1.410       .  A
C461       Br468   1.931       .  S
C462        C463   1.410       .  A
C463        C464   1.408       .  A
C463       Br470   1.935       .  S
C464        C465   1.414       .  A
C464       Br469   1.931       .  S
C465        C466   1.416       .  A
C466       Br467   1.932       .  S
C471        C472   1.410       .  A
C471        C476   1.409       .  A
C471       Br478   1.931       .  S
C472        C473   1.411       .  A
C473        C474   1.410       .  A
C473       Br480   1.932       .  S
C474        C475   1.414       .  A
C474       Br479   1.934       .  S
C475        C476   1.413       .  A
C476       Br477   1.932       .  S
In481       O483   2.249       .  S
In481       O484   2.256       .  S
In481       O492   2.231       .  S
In481       O486   2.267       .  S
In481       O488   2.243       .  S
In481       O489   2.256       .  S
In481       O490   2.229       .  S
In481       O493   2.249       .  S
C482        O488   1.263       .  A
C482        O490   1.261       .  A
C482        C692   1.479       .  S
O483        C491   1.258       .  A
O484        C491   1.260       .  A
C485        O492   1.258       .  A
C485        O486   1.260       .  A
C485        C702   1.481       .  S
C487        O489   1.263       .  A
C487        O493   1.261       .  A
C487        C712   1.481       .  S
C491        C508   1.482       .  S
In494       O736   2.243   1_554  S
In494       O497   2.230       .  S
In494       O505   2.241       .  S
In494       O499   2.250       .  S
In494       O501   2.254       .  S
In494       O502   2.253       .  S
In494       O503   2.234       .  S
In494       O506   2.246       .  S
C495        O501   1.262       .  A
C495        O503   1.260       .  A
C495        C672   1.479       .  S
O496       In734   2.243       .  S
O496        C504   1.263       .  A
O497        C744   1.263   1_554  A
C498        O505   1.255       .  A
C498        O499   1.259       .  A
C498        C682   1.478       .  S
C500        O502   1.260       .  A
C500        O506   1.258       .  A
C500        C715   1.483       .  S
C504        O737   1.263       .  A
C504        C507   1.484       .  S
C507        C508   1.419       .  A
C507        C512   1.405       .  A
C508        C509   1.403       .  A
C509        C510   1.406       .  A
C509        H514   1.084       .  S
C510        C525   1.482       .  S
C510        C511   1.418       .  A
C511        C538   1.483       .  S
C511        C512   1.402       .  A
C512        H753   1.084       .  S
H513        C752   1.084   1_554  S
In515       O517   2.231       .  S
In515       O518   2.235       .  S
In515       O526   2.237       .  S
In515       O520   2.243       .  S
In515       O522   2.261       .  S
In515       O523   2.263       .  S
In515       O524   2.246       .  S
In515       O527   2.245       .  S
C516        O522   1.260       .  A
C516        O524   1.258       .  A
C516        C642   1.476       .  S
O517        C525   1.261       .  A
O518        C525   1.263       .  A
C519        O526   1.259       .  A
C519        O520   1.261       .  A
C519        C652   1.487       .  S
C521        O523   1.259       .  A
C521        O527   1.258       .  A
C521        C665   1.484       .  S
In528       O770   2.251   1_554  S
In528       O531   2.251       .  S
In528       O539   2.243       .  S
In528       O533   2.260       .  S
In528       O535   2.270       .  S
In528       O536   2.254       .  S
In528       O537   2.250       .  S
In528       O540   2.247       .  S
C529        O535   1.260       .  A
C529        O537   1.257       .  A
C529        C625   1.489       .  S
O530       In768   2.251       .  S
O530        C538   1.258       .  A
O531        C778   1.259   1_554  A
C532        O539   1.259       .  A
C532        O533   1.263       .  A
C532        C632   1.494       .  S
C534        O536   1.262       .  A
C534        O540   1.262       .  A
C534        C662   1.478       .  S
C538        O771   1.259       .  A
In541       O543   2.243   1_545  S
In541       O552   2.235   1_545  S
In541       O546   2.259   1_545  S
In541       O553   2.244   1_545  S
C542        O548   1.259       .  A
C542        O550   1.255       .  A
C542        C695   1.485       .  S
O543        C551   1.256       .  A
C545        O552   1.261       .  A
C545        O546   1.263       .  A
C545        C705   1.488       .  S
C547        O549   1.264       .  A
C547        C612   1.483       .  S
C551        C568   1.482       .  S
In554       O796   2.253   1_554  S
In554       O565   2.235       .  S
In554       O559   2.239       .  S
In554       O566   2.247       .  S
C555        O561   1.261   1_554  A
C555        O563   1.258       .  A
C555        C675   1.488       .  S
O556       In794   2.253       .  S
O557        C804   1.261   1_564  A
C558        O565   1.261       .  A
C558        O559   1.262       .  A
C558        C685   1.477       .  S
C560        O562   1.263   1_565  A
C560        C615   1.489       .  S
C564        O797   1.261   1_545  A
C564        C567   1.482       .  S
C567        C568   1.420   1_545  A
C567        C572   1.400   1_655  A
C568        C569   1.405   1_655  A
C569        C570   1.406       .  A
C569        H574   1.087       .  S
C570        C585   1.488       .  S
C570        C571   1.419   1_565  A
C571        C598   1.474       .  S
C571        C572   1.400       .  A
C572        H813   1.088       .  S
H573        C812   1.088   1_554  S
In575       O577   2.246       .  S
In575       O586   2.243       .  S
In575       O580   2.254       .  S
In575       O587   2.248       .  S
C576        O582   1.259       .  A
C576        O584   1.258       .  A
C576        C645   1.485       .  S
O578        C585   1.263       .  A
C579        O586   1.259       .  A
C579        O580   1.261       .  A
C579        C655   1.475       .  S
C581        O583   1.260   1_565  A
C581        C602   1.483       .  S
In588       O830   2.243   1_544  S
In588       O599   2.236   1_545  S
In588       O593   2.257   1_545  S
In588       O600   2.240   1_545  S
C589        O595   1.261       .  A
C589        O597   1.254       .  A
C589        C622   1.483       .  S
O590       In828   2.243   1_565  S
O590        C598   1.255   1_565  A
C592        O599   1.262       .  A
C592        O593   1.266       .  A
C592        C635   1.485       .  S
C594        O596   1.264       .  A
C601        C602   1.412       .  A
C601        C606   1.408       .  A
C601       Br608   1.932       .  S
C603        C604   1.411       .  A
C603       Br610   1.932       .  S
C604       Br609   1.931       .  S
C605        C606   1.409       .  A
C606       Br607   1.932       .  S
C611        C612   1.412       .  A
C611        C616   1.412       .  A
C611       Br618   1.932       .  S
C613        C614   1.410       .  A
C613       Br620   1.933       .  S
C614        C615   1.415       .  A
C614       Br619   1.932       .  S
C616       Br617   1.932       .  S
C621        C622   1.410       .  A
C621        C626   1.410       .  A
C621       Br628   1.932   1_554  S
C622        C623   1.413       .  A
C623        C624   1.410       .  A
C623       Br630   1.934       .  S
C624        C625   1.414       .  A
C624       Br629   1.933       .  S
C625        C626   1.416       .  A
C626       Br627   1.931   1_554  S
C631        C632   1.417       .  A
C631        C636   1.411       .  A
C631       Br638   1.934   1_554  S
C632        C633   1.419       .  A
C633        C634   1.411       .  A
C633       Br640   1.933       .  S
C634        C635   1.409       .  A
C634       Br639   1.933       .  S
C635        C636   1.412       .  A
C636       Br637   1.933   1_554  S
C641        C642   1.408       .  A
C641        C646   1.411       .  A
C641       Br648   1.930       .  S
C642        C643   1.407       .  A
C643        C644   1.408       .  A
C643       Br650   1.932       .  S
C644        C645   1.415       .  A
C644       Br649   1.933       .  S
C645        C646   1.414       .  A
C646       Br647   1.929       .  S
C651        C652   1.416       .  A
C651        C656   1.409       .  A
C651       Br658   1.934       .  S
C652        C653   1.419       .  A
C653        C654   1.407       .  A
C653       Br660   1.934       .  S
C654        C655   1.407       .  A
C654       Br659   1.933       .  S
C655        C656   1.408       .  A
C656       Br657   1.930       .  S
C661        C662   1.409       .  A
C661        C666   1.412       .  A
C661       Br668   1.930       .  S
C662        C663   1.409       .  A
C663        C664   1.407       .  A
C663       Br670   1.932       .  S
C664        C665   1.413       .  A
C664       Br669   1.934       .  S
C665        C666   1.415       .  A
C666       Br667   1.931       .  S
C671        C672   1.409       .  A
C671        C676   1.408       .  A
C671       Br678   1.933       .  S
C672        C673   1.410   1_554  A
C673        C674   1.411       .  A
C673       Br680   1.932       .  S
C674        C675   1.415   1_556  A
C674       Br679   1.930       .  S
C675        C676   1.415       .  A
C676       Br677   1.934       .  S
C681        C682   1.415       .  A
C681        C686   1.407       .  A
C681       Br688   1.935       .  S
C682        C683   1.411       .  A
C683        C684   1.407       .  A
C683       Br930   1.932   1_554  S
C684        C685   1.411       .  A
C684       Br929   1.931   1_554  S
C685        C686   1.412       .  A
C686       Br687   1.935       .  S
Br689       C924   1.931       .  S
Br690       C923   1.932       .  S
C691        C692   1.411       .  A
C691        C696   1.409       .  A
C691       Br698   1.933       .  S
C692        C693   1.411       .  A
C693        C694   1.408       .  A
C693       Br700   1.934       .  S
C694        C695   1.415       .  A
C694       Br699   1.934       .  S
C695        C696   1.414       .  A
C696       Br697   1.932       .  S
C701        C702   1.410       .  A
C701        C706   1.410       .  A
C701       Br708   1.931       .  S
C702        C703   1.410       .  A
C703        C704   1.408       .  A
C703       Br710   1.935       .  S
C704        C705   1.414       .  A
C704       Br709   1.931       .  S
C705        C706   1.416       .  A
C706       Br707   1.932       .  S
C711        C712   1.410       .  A
C711        C716   1.409       .  A
C711       Br718   1.931       .  S
C712        C713   1.411       .  A
C713        C714   1.410       .  A
C713       Br720   1.932       .  S
C714        C715   1.414       .  A
C714       Br719   1.934       .  S
C715        C716   1.413       .  A
C716       Br717   1.932       .  S
In721       O723   2.249       .  S
In721       O724   2.256       .  S
In721       O732   2.231       .  S
In721       O726   2.267       .  S
In721       O728   2.243       .  S
In721       O729   2.256       .  S
In721       O730   2.229       .  S
In721       O733   2.249       .  S
C722        O728   1.263       .  A
C722        O730   1.261       .  A
C722        C932   1.479       .  S
O723        C731   1.258       .  A
O724        C731   1.260       .  A
C725        O732   1.258       .  A
C725        O726   1.260       .  A
C725        C942   1.481       .  S
C727        O729   1.263       .  A
C727        O733   1.261       .  A
C727        C952   1.481       .  S
C731        C748   1.482       .  S
In734       O737   2.230       .  S
In734       O745   2.241       .  S
In734       O739   2.250       .  S
In734       O741   2.254       .  S
In734       O742   2.253       .  S
In734       O743   2.234       .  S
In734       O746   2.246       .  S
C735        O741   1.262       .  A
C735        O743   1.260       .  A
C735        C912   1.479       .  S
O736        C744   1.263       .  A
C738        O745   1.255       .  A
C738        O739   1.259       .  A
C738        C922   1.478       .  S
C740        O742   1.260       .  A
C740        O746   1.258       .  A
C740        C955   1.483       .  S
C744        C747   1.484       .  S
C747        C748   1.419       .  A
C747        C752   1.405       .  A
C748        C749   1.403       .  A
C749        C750   1.406       .  A
C749        H754   1.084       .  S
C750        C765   1.482       .  S
C750        C751   1.418       .  A
C751        C778   1.483       .  S
C751        C752   1.402       .  A
In755       O757   2.231       .  S
In755       O758   2.235       .  S
In755       O766   2.237       .  S
In755       O760   2.243       .  S
In755       O762   2.261       .  S
In755       O763   2.263       .  S
In755       O764   2.246       .  S
In755       O767   2.245       .  S
C756        O762   1.260       .  A
C756        O764   1.258       .  A
C756        C882   1.476       .  S
O757        C765   1.261       .  A
O758        C765   1.263       .  A
C759        O766   1.259       .  A
C759        O760   1.261       .  A
C759        C892   1.487       .  S
C761        O763   1.259       .  A
C761        O767   1.258       .  A
C761        C905   1.484       .  S
In768       O771   2.251       .  S
In768       O779   2.243       .  S
In768       O773   2.260       .  S
In768       O775   2.270       .  S
In768       O776   2.254       .  S
In768       O777   2.250       .  S
In768       O780   2.247       .  S
C769        O775   1.260       .  A
C769        O777   1.257       .  A
C769        C865   1.489       .  S
O770        C778   1.258       .  A
C772        O779   1.259       .  A
C772        O773   1.263       .  A
C772        C872   1.494       .  S
C774        O776   1.262       .  A
C774        O780   1.262       .  A
C774        C902   1.478       .  S
In781       O783   2.243   1_545  S
In781       O792   2.235   1_545  S
In781       O786   2.259   1_545  S
In781       O793   2.244   1_545  S
C782        O788   1.259       .  A
C782        O790   1.255       .  A
C782        C935   1.485       .  S
O783        C791   1.256       .  A
C785        O792   1.261       .  A
C785        O786   1.263       .  A
C785        C945   1.488       .  S
C787        O789   1.264       .  A
C787        C852   1.483       .  S
C791        C808   1.482       .  S
In794       O805   2.235       .  S
In794       O799   2.239       .  S
In794       O806   2.247       .  S
C795        O801   1.261       .  A
C795        O803   1.258       .  A
C795        C915   1.488       .  S
C798        O805   1.261       .  A
C798        O799   1.262       .  A
C798        C925   1.477       .  S
C800        O802   1.263   1_565  A
C800        C855   1.489       .  S
C804        C807   1.482       .  S
C807        C808   1.420   1_545  A
C807        C812   1.400   1_655  A
C808        C809   1.405   1_655  A
C809        C810   1.406       .  A
C809        H814   1.087       .  S
C810        C825   1.488       .  S
C810        C811   1.419   1_565  A
C811        C838   1.474       .  S
C811        C812   1.400       .  A
In815       O817   2.246       .  S
In815       O826   2.243       .  S
In815       O820   2.254       .  S
In815       O827   2.248       .  S
C816        O822   1.259       .  A
C816        O824   1.258       .  A
C816        C885   1.485       .  S
O818        C825   1.263       .  A
C819        O826   1.259       .  A
C819        O820   1.261       .  A
C819        C895   1.475       .  S
C821        O823   1.260   1_565  A
C821        C842   1.483       .  S
In828       O839   2.236   1_545  S
In828       O833   2.257   1_545  S
In828       O840   2.240   1_545  S
C829        O835   1.261       .  A
C829        O837   1.254       .  A
C829        C862   1.483       .  S
O830        C838   1.255   1_565  A
C832        O839   1.262       .  A
C832        O833   1.266       .  A
C832        C875   1.485       .  S
C834        O836   1.264       .  A
C841        C842   1.412       .  A
C841        C846   1.408       .  A
C841       Br848   1.932       .  S
C843        C844   1.411       .  A
C843       Br850   1.932       .  S
C844       Br849   1.931       .  S
C845        C846   1.409       .  A
C846       Br847   1.932       .  S
C851        C852   1.412       .  A
C851        C856   1.412       .  A
C851       Br858   1.932       .  S
C853        C854   1.410       .  A
C853       Br860   1.933       .  S
C854        C855   1.415       .  A
C854       Br859   1.932       .  S
C856       Br857   1.932       .  S
C861        C862   1.410       .  A
C861        C866   1.410       .  A
C861       Br868   1.932       .  S
C862        C863   1.413       .  A
C863        C864   1.410       .  A
C863       Br870   1.934       .  S
C864        C865   1.414       .  A
C864       Br869   1.933       .  S
C865        C866   1.416       .  A
C866       Br867   1.931       .  S
C871        C872   1.417       .  A
C871        C876   1.411       .  A
C871       Br878   1.934       .  S
C872        C873   1.419       .  A
C873        C874   1.411       .  A
C873       Br880   1.933       .  S
C874        C875   1.409       .  A
C874       Br879   1.933       .  S
C875        C876   1.412       .  A
C876       Br877   1.933       .  S
C881        C882   1.408       .  A
C881        C886   1.411       .  A
C881       Br888   1.930       .  S
C882        C883   1.407       .  A
C883        C884   1.408       .  A
C883       Br890   1.932       .  S
C884        C885   1.415       .  A
C884       Br889   1.933       .  S
C885        C886   1.414       .  A
C886       Br887   1.929       .  S
C891        C892   1.416       .  A
C891        C896   1.409       .  A
C891       Br898   1.934       .  S
C892        C893   1.419       .  A
C893        C894   1.407       .  A
C893       Br900   1.934       .  S
C894        C895   1.407       .  A
C894       Br899   1.933       .  S
C895        C896   1.408       .  A
C896       Br897   1.930       .  S
C901        C902   1.409       .  A
C901        C906   1.412       .  A
C901       Br908   1.930       .  S
C902        C903   1.409       .  A
C903        C904   1.407       .  A
C903       Br910   1.932       .  S
C904        C905   1.413       .  A
C904       Br909   1.934       .  S
C905        C906   1.415       .  A
C906       Br907   1.931       .  S
C911        C912   1.409       .  A
C911        C916   1.408       .  A
C911       Br918   1.933       .  S
C912        C913   1.410       .  A
C913        C914   1.411       .  A
C913       Br920   1.932       .  S
C914        C915   1.415       .  A
C914       Br919   1.930       .  S
C915        C916   1.415       .  A
C916       Br917   1.934       .  S
C921        C922   1.415       .  A
C921        C926   1.407       .  A
C921       Br928   1.935       .  S
C922        C923   1.411       .  A
C923        C924   1.407       .  A
C924        C925   1.411       .  A
C925        C926   1.412       .  A
C926       Br927   1.935       .  S
C931        C932   1.411       .  A
C931        C936   1.409       .  A
C931       Br938   1.933       .  S
C932        C933   1.411       .  A
C933        C934   1.408       .  A
C933       Br940   1.934       .  S
C934        C935   1.415       .  A
C934       Br939   1.934       .  S
C935        C936   1.414       .  A
C936       Br937   1.932       .  S
C941        C942   1.410       .  A
C941        C946   1.410       .  A
C941       Br948   1.931       .  S
C942        C943   1.410       .  A
C943        C944   1.408       .  A
C943       Br950   1.935       .  S
C944        C945   1.414       .  A
C944       Br949   1.931       .  S
C945        C946   1.416       .  A
C946       Br947   1.932       .  S
C951        C952   1.410       .  A
C951        C956   1.409       .  A
C951       Br958   1.931       .  S
C952        C953   1.411       .  A
C953        C954   1.410       .  A
C953       Br960   1.932       .  S
C954        C955   1.414       .  A
C954       Br959   1.934       .  S
C955        C956   1.413       .  A
C956       Br957   1.932       .  S
