geometry optimzed in LAMMPS
_audit_creation_date              2020-11-30 
_audit_creation_method            'lammps2cif' 
_symmetry_space_group_name_H-M    'P1' 
_symmetry_Int_Tables_number       1 
_symmetry_cell_setting            triclinic 
loop_ 
_symmetry_equiv_pos_as_xyz 
  x,y,z 
_cell_length_a                    30.69659296 
_cell_length_b                    30.58973066863458 
_cell_length_c                    27.843214775043695 
_cell_angle_alpha                 89.84476886669216 
_cell_angle_beta                  90.07168324996435 
_cell_angle_gamma                 89.9239607849367 
loop_ 
_atom_site_label 
_atom_site_type_symbol 
_atom_site_fract_x 
_atom_site_fract_y 
_atom_site_fract_z 
_atom_site_charge 
C1          C  0.51614509  0.22486491  0.20892188     0.02900
C2          C  0.51513241  0.27067037  0.21017292    -0.13300
C3          C  0.49674222  0.29255315  0.24953455     0.00400
C4          C  0.47857359  0.26797356  0.28723121    -0.11800
C5          C  0.47800471  0.22209627  0.28510231     0.02900
C6          C  0.49720931  0.20076853  0.24614676    -0.11200
H7          H  0.52969763  0.28910621  0.18104229     0.08500
H8          H  0.46396957  0.28438060  0.31768887     0.06000
H9          H  0.49746781  0.16532943  0.24481569     0.05800
O10         O  0.49823301  0.36262858  0.21193585    -0.73200
O11         O  0.49457874  0.49358700  0.21602692    -0.74200
O12         O  0.56158118  0.43025650  0.21212014    -0.62800
O13         O  0.43094398  0.42611401  0.21529630    -0.71200
O14         O  0.43221413  0.42874731  0.29491592    -0.70800
O15         O  0.56318318  0.42367581  0.29147875    -0.62000
O16         O  0.50063112  0.49169749  0.29542601    -0.74500
O17         O  0.49519094  0.36047822  0.29151516    -0.73300
Cu18       Cu  0.49622091  0.42820318  0.21109037     1.04600
Cu19       Cu  0.49782210  0.42603851  0.29616382     1.04300
C20         C  0.49666406  0.34080925  0.25110511     0.93000
C21         C  0.49822591  0.51336419  0.25621807     0.92100
C22         C  0.58305883  0.42723387  0.25131045     0.84300
C23         C  0.41089609  0.42745910  0.25545444     0.90600
C24         C  0.70073361  0.40987306  0.28712887     0.02900
C25         C  0.65515952  0.40854493  0.28740683    -0.13300
C26         C  0.63115887  0.42826897  0.25031408     0.00400
C27         C  0.65340126  0.44950592  0.21279047    -0.11800
C28         C  0.69913425  0.45240857  0.21315286     0.02900
C29         C  0.72263349  0.43192566  0.25020522    -0.11200
H30         H  0.63851775  0.39150155  0.31619341     0.08500
H31         H  0.63518603  0.46459767  0.18378837     0.06000
H32         H  0.75793235  0.43321137  0.25042238     0.05800
C33         C  0.48241776  0.63152347  0.21946524     0.02900
C34         C  0.50548339  0.65325243  0.25579682    -0.13300
C35         C  0.52512839  0.62948377  0.29321462     0.00400
C36         C  0.52175059  0.58373056  0.29415238    -0.11800
C37         C  0.50003701  0.56157102  0.25701404     0.02900
C38         C  0.48091660  0.58572310  0.21963485    -0.11200
H39         H  0.50760421  0.68861530  0.25538757     0.08500
H40         H  0.53720532  0.56548342  0.32291549     0.06000
H41         H  0.46413693  0.56890199  0.19075834     0.05800
C42         C  0.29432042  0.45030380  0.29247527     0.02900
C43         C  0.34000959  0.44894335  0.29293976    -0.13300
C44         C  0.36277515  0.42761845  0.25604065     0.00400
C45         C  0.33923451  0.40708905  0.21910467    -0.11800
C46         C  0.29349429  0.40743112  0.21924775     0.02900
C47         C  0.27123308  0.42937297  0.25580934    -0.11200
H48         H  0.35767642  0.46541155  0.32131841     0.08500
H49         H  0.35637510  0.39050434  0.19041497     0.06000
H50         H  0.23591233  0.43032915  0.25562852     0.05800
C51         C  0.48205877  0.63401871  0.78468477     0.02900
C52         C  0.47957668  0.58838746  0.78429150    -0.13300
C53         C  0.49997667  0.56432863  0.74795435     0.00400
C54         C  0.52317222  0.58647311  0.71176801    -0.11800
C55         C  0.52790020  0.63221750  0.71332888     0.02900
C56         C  0.50710449  0.65566884  0.75010058    -0.11200
H57         H  0.46101539  0.57173603  0.81192404     0.08500
H58         H  0.53780081  0.56813425  0.68272544     0.06000
H59         H  0.50980913  0.69098429  0.75146874     0.05800
O60         O  0.42717535  0.43087406  0.78886868    -0.73200
O61         O  0.55715149  0.42991418  0.79072142    -0.74200
O62         O  0.49288243  0.49601721  0.78830708    -0.62800
O63         O  0.49166614  0.36493276  0.79048670    -0.71200
O64         O  0.48793460  0.36462628  0.71088237    -0.70800
O65         O  0.49864822  0.49514698  0.70886001    -0.62000
O66         O  0.55823234  0.42449048  0.71123480    -0.74500
O67         O  0.42803114  0.43506599  0.70925238    -0.73300
Cu68       Cu  0.49213367  0.43051251  0.79241282     1.04600
Cu69       Cu  0.49317633  0.42983639  0.70725186     1.04300
C70         C  0.40703837  0.43338605  0.74882275     0.93000
C71         C  0.57825327  0.42634879  0.75143964     0.92100
C72         C  0.49701072  0.51624495  0.74831690     0.84300
C73         C  0.48922938  0.34407677  0.75085069     0.90600
C74         C  0.29068726  0.45451110  0.71085309     0.02900
C75         C  0.33630939  0.45498453  0.71162592    -0.13300
C76         C  0.35916187  0.43347264  0.74834564     0.00400
C77         C  0.33605304  0.41131246  0.78436680    -0.11800
C78         C  0.29045569  0.40984801  0.78332910     0.02900
C79         C  0.26780944  0.43192380  0.74678146    -0.11200
H80         H  0.35390349  0.47247404  0.68386560     0.08500
H81         H  0.35346855  0.39466656  0.81295289     0.06000
H82         H  0.23248107  0.43166548  0.74638548     0.05800
C83         C  0.51333245  0.22743840  0.78729887     0.02900
C84         C  0.50906642  0.27303461  0.78901336    -0.13300
C85         C  0.48934457  0.29588320  0.75100748     0.00400
C86         C  0.47190808  0.27245404  0.71214931    -0.11800
C87         C  0.47465116  0.22668400  0.71098499     0.02900
C88         C  0.49541163  0.20438497  0.74860885    -0.11200
H89         H  0.52243232  0.29075611  0.81927355     0.08500
H90         H  0.45609583  0.28968902  0.68284605     0.06000
H91         H  0.49770420  0.16902007  0.74770552     0.05800
C92         C  0.69495572  0.39892384  0.71936441     0.02900
C93         C  0.71724758  0.42011621  0.75681641    -0.13300
C94         C  0.69432521  0.44394516  0.79151571     0.00400
C95         C  0.64883118  0.44542483  0.78985661    -0.11800
C96         C  0.62611119  0.42445700  0.75280450     0.02900
C97         C  0.64935134  0.40220771  0.71701575    -0.11200
H98         H  0.75252081  0.41894763  0.75841526     0.08500
H99         H  0.63126087  0.46384849  0.81684379     0.06000
H100        H  0.63195765  0.38749030  0.68733455     0.05800
C101        C  0.01158498  0.73019934  0.70731410     0.02900
C102        C  0.98927562  0.70789939  0.74377026    -0.13300
C103        C  0.96922653  0.73098695  0.78119436     0.00400
C104        C  0.97158198  0.77684078  0.78187762    -0.11800
C105        C  0.99379573  0.79952341  0.74544896     0.02900
C106        C  0.01351665  0.77595359  0.70820414    -0.11200
H107        H  0.98789673  0.67249427  0.74330354     0.08500
H108        H  0.95604873  0.79474512  0.81070919     0.06000
H109        H  0.03116194  0.79311103  0.68022394     0.05800
O110        O  0.06700555  0.92686850  0.78826759    -0.73200
O111        O  0.93681788  0.93986136  0.78532230    -0.74200
O112        O  0.99535924  0.86801824  0.78617124    -0.62800
O113        O  0.00784900  0.99872891  0.78736887    -0.71200
O114        O  0.00451095  0.99938147  0.70773530    -0.70800
O115        O  0.00147269  0.86855138  0.70676484    -0.62000
O116        O  0.93789403  0.93573332  0.70576885    -0.74500
O117        O  0.06870463  0.93218251  0.70881807    -0.73300
Cu118      Cu  0.00179841  0.93333362  0.78957870     1.04600
Cu119      Cu  0.00329276  0.93398464  0.70447178     1.04300
C120        C  0.08852048  0.92825109  0.74902112     0.93000
C121        C  0.91674443  0.93908325  0.74510334     0.92100
C122        C  0.99693077  0.84762239  0.74621619     0.84300
C123        C  0.00653460  0.01975379  0.74766696     0.90600
C124        C  0.20402073  0.90435261  0.79025451     0.02900
C125        C  0.22808274  0.92530782  0.75416241    -0.13300
C126        C  0.20690426  0.94618922  0.71573582     0.00400
C127        C  0.16121085  0.94502180  0.71316623    -0.11800
C128        C  0.13662828  0.92599170  0.75021934     0.02900
C129        C  0.15832133  0.90575378  0.78881735    -0.11200
H130        H  0.26337919  0.92525554  0.75598177     0.08500
H131        H  0.14479498  0.96006125  0.68287133     0.06000
H132        H  0.13979661  0.89051929  0.81740140     0.05800
C133        C  0.98091314  0.13635571  0.71216258     0.02900
C134        C  0.00046507  0.15954273  0.74975990    -0.13300
C135        C  0.02342982  0.13731608  0.78580184     0.00400
C136        C  0.02553334  0.09148899  0.78519337    -0.11800
C137        C  0.00582447  0.06792726  0.74784762     0.02900
C138        C  0.98381039  0.09064246  0.71125779    -0.11200
H139        H  0.99807218  0.19488695  0.75079972     0.08500
H140        H  0.04280563  0.07435541  0.81353459     0.06000
H141        H  0.96809111  0.07277224  0.68245497     0.05800
C142        C  0.80015466  0.96356763  0.78090767     0.02900
C143        C  0.77733942  0.94211006  0.74424725    -0.13300
C144        C  0.79973943  0.91990827  0.70794569     0.00400
C145        C  0.84542101  0.92077151  0.70722569    -0.11800
C146        C  0.86874763  0.94137995  0.74416430     0.02900
C147        C  0.84588309  0.96243929  0.78119452    -0.11200
H148        H  0.74201191  0.94176241  0.74464801     0.08500
H149        H  0.86271352  0.90392237  0.67884588     0.06000
H150        H  0.86355314  0.97769657  0.81037186     0.05800
C151        C  0.98046800  0.13383905  0.29087641     0.02900
C152        C  0.98315520  0.08792891  0.29134429    -0.13300
C153        C  0.00476899  0.06549753  0.25427099     0.00400
C154        C  0.02513427  0.08960028  0.21764734    -0.11800
C155        C  0.02426904  0.13546401  0.21814682     0.02900
C156        C  0.00151830  0.15732239  0.25440786    -0.11200
H157        H  0.96738330  0.06972744  0.31986929     0.08500
H158        H  0.04193931  0.07280644  0.18887623     0.06000
H159        H  0.00001879  0.19275183  0.25406679     0.05800
O160        O  0.00717956  0.99738984  0.21252203    -0.73200
O161        O  0.99691421  0.86624889  0.20784739    -0.74200
O162        O  0.93700084  0.93663441  0.20897467    -0.62800
O163        O  0.06772192  0.92622544  0.21109500    -0.71200
O164        O  0.06692425  0.92870281  0.29068939    -0.70800
O165        O  0.93604524  0.92991902  0.28832298    -0.62000
O166        O  0.00067296  0.86411669  0.28741599    -0.74500
O167        O  0.00161745  0.99530717  0.29191614    -0.73300
Cu168      Cu  0.00233666  0.93181465  0.20730522     1.04600
Cu169      Cu  0.00135067  0.92951968  0.29235447     1.04300
C170        C  0.00475289  0.01713485  0.25287915     0.93000
C171        C  0.99749010  0.84449816  0.24710229     0.92100
C172        C  0.91583749  0.93344562  0.24832567     0.84300
C173        C  0.08801930  0.92602616  0.25123198     0.90600
C174        C  0.79861286  0.95335860  0.21004418     0.02900
C175        C  0.84443962  0.95237754  0.20961770    -0.13300
C176        C  0.86771371  0.93309964  0.24770918     0.00400
C177        C  0.84471823  0.91259050  0.28504117    -0.11800
C178        C  0.79915261  0.91127497  0.28434915     0.02900
C179        C  0.77623120  0.93219943  0.24740658    -0.11200
H180        H  0.86193095  0.96717091  0.17999795     0.08500
H181        H  0.86215599  0.89658972  0.31404195     0.06000
H182        H  0.74090986  0.93191827  0.24779093     0.05800
C183        C  0.01271078  0.72579977  0.28179491     0.02900
C184        C  0.01437682  0.77158197  0.28260951    -0.13300
C185        C  0.99454027  0.79636091  0.24615752     0.00400
C186        C  0.97201113  0.77483254  0.20917301    -0.11800
C187        C  0.96899103  0.72904227  0.20902186     0.02900
C188        C  0.98946247  0.70462509  0.24530547    -0.11200
H189        H  0.03218613  0.78779896  0.31109329     0.08500
H190        H  0.95631621  0.79356030  0.18092417     0.06000
H191        H  0.98784005  0.66922203  0.24472905     0.05800
C192        C  0.20451711  0.90055570  0.21452010     0.02900
C193        C  0.15881164  0.90324158  0.21374545    -0.13300
C194        C  0.13615481  0.92265615  0.25209459     0.00400
C195        C  0.15989011  0.93930703  0.29117765    -0.11800
C196        C  0.20563793  0.93786957  0.29135192     0.02900
C197        C  0.22760940  0.91758154  0.25355410    -0.11200
H198        H  0.14103582  0.88987052  0.18352237     0.08500
H199        H  0.14298467  0.95488800  0.32068995     0.06000
H200        H  0.26289620  0.91581849  0.25403488     0.05800
O201        O  0.16062993  0.33648025  0.05253575    -0.73200
O202        O  0.09494848  0.27068125  0.95106541    -0.74200
O203        O  0.09496227  0.27100915  0.05298667    -0.62800
O204        O  0.16090223  0.33587137  0.95054048    -0.71200
O205        O  0.21191215  0.28458158  0.95102511    -0.70800
O206        O  0.14608144  0.21983131  0.05288143    -0.62000
O207        O  0.14626151  0.21963575  0.95114502    -0.74500
O208        O  0.21141508  0.28497702  0.05286856    -0.73300
Cu209      Cu  0.12608230  0.30533260  0.00174162     1.04600
Cu210      Cu  0.18065159  0.25048407  0.00200302     1.04300
C211        C  0.19646899  0.32116483  0.06878107     0.93000
C212        C  0.11017083  0.23465921  0.93514865     0.92100
C213        C  0.11014701  0.23490775  0.06904011     0.84300
C214        C  0.19693713  0.32068989  0.93475178     0.90600
O215        O  0.59198409  0.09020219  0.04702142    -0.73200
O216        O  0.66198463  0.02751971  0.94593238    -0.74200
O217        O  0.65997205  0.02618083  0.04781904    -0.62800
O218        O  0.59365191  0.09077009  0.94568746    -0.71200
O219        O  0.64262602  0.14373726  0.94751810    -0.70800
O220        O  0.70934552  0.07870196  0.04858518    -0.62000
O221        O  0.71059848  0.08081860  0.94760750    -0.74500
O222        O  0.64211653  0.14222635  0.04802994    -0.73300
Cu223      Cu  0.62516458  0.05671981  0.99656071     1.04600
Cu224      Cu  0.67782847  0.11310490  0.99799307     1.04300
C225        C  0.60597311  0.12676852  0.06289329     0.93000
C226        C  0.69765455  0.04423404  0.93098956     0.92100
C227        C  0.69558653  0.04182671  0.06402475     0.84300
C228        C  0.60700875  0.12801637  0.93121555     0.90600
O229        O  0.88849779  0.60022318  0.94213216    -0.73200
O230        O  0.82865965  0.53331034  0.04722441    -0.74200
O231        O  0.82516374  0.53249901  0.94563414    -0.62800
O232        O  0.89206820  0.60108312  0.04372166    -0.71200
O233        O  0.83873193  0.64997952  0.04665429    -0.70800
O234        O  0.77337712  0.58311047  0.94569488    -0.62000
O235        O  0.77543342  0.58209780  0.04767339    -0.74500
O236        O  0.83689912  0.65072398  0.94452393    -0.73300
Cu237      Cu  0.86041308  0.56508338  0.99462121     1.04600
Cu238      Cu  0.80427504  0.61822158  0.99618597     1.04300
C239        C  0.87244378  0.63624141  0.92677924     0.93000
C240        C  0.79220791  0.54662683  0.06371916     0.92100
C241        C  0.78879486  0.54709212  0.92995969     0.84300
C242        C  0.87603210  0.63637160  0.06065511     0.90600
O243        O  0.40749778  0.76291923  0.05180366    -0.73200
O244        O  0.33781076  0.82830249  0.95274507    -0.74200
O245        O  0.33914707  0.82574101  0.05446101    -0.62800
O246        O  0.40580306  0.76495282  0.94983445    -0.71200
O247        O  0.35637594  0.71219598  0.94906115    -0.70800
O248        O  0.29037437  0.77258265  0.05293536    -0.62000
O249        O  0.28871427  0.77536478  0.95177727    -0.74500
O250        O  0.35841681  0.70995862  0.05088336    -0.73300
Cu251      Cu  0.37433124  0.79731696  0.00216971     1.04600
Cu252      Cu  0.32186169  0.74065842  0.00112820     1.04300
C253        C  0.39387880  0.72607391  0.06726193     0.93000
C254        C  0.30195287  0.81268218  0.93709427     0.92100
C255        C  0.30389422  0.80866818  0.07018081     0.84300
C256        C  0.39167325  0.72877427  0.93312161     0.90600
O257        O  0.14241299  0.64715431  0.44369832    -0.73200
O258        O  0.21047446  0.58728492  0.54825175    -0.74200
O259        O  0.20960663  0.58325948  0.44681305    -0.62800
O260        O  0.14353073  0.65117506  0.54532071    -0.71200
O261        O  0.09381944  0.59885889  0.54873633    -0.70800
O262        O  0.15970055  0.53096290  0.44959906    -0.62000
O263        O  0.16069559  0.53492665  0.55066854    -0.74500
O264        O  0.09228594  0.59517282  0.44706513    -0.73300
Cu265      Cu  0.17819316  0.61908333  0.49584664     1.04600
Cu266      Cu  0.12485566  0.56319576  0.49906499     1.04300
C267        C  0.10632648  0.63098690  0.42924489     0.93000
C268        C  0.19637123  0.55139071  0.56583980     0.92100
C269        C  0.19556577  0.54597816  0.43328575     0.84300
C270        C  0.10851748  0.63563729  0.56313279     0.90600
O271        O  0.40764747  0.08394990  0.44840107    -0.73200
O272        O  0.34370840  0.01979351  0.55261590    -0.74200
O273        O  0.34421480  0.01567303  0.45055223    -0.62800
O274        O  0.40634399  0.08843101  0.55045580    -0.71200
O275        O  0.35284579  0.13692049  0.54667311    -0.70800
O276        O  0.29197207  0.06557383  0.44825058    -0.62000
O277        O  0.29078250  0.06881789  0.54927193    -0.74500
O278        O  0.35471137  0.13305973  0.44570575    -0.73300
Cu279      Cu  0.37741355  0.05018943  0.50057654     1.04600
Cu280      Cu  0.32083608  0.10271326  0.49731295     1.04300
C281        C  0.39156870  0.11905750  0.43091411     0.93000
C282        C  0.30694609  0.03391049  0.56734978     0.92100
C283        C  0.30778020  0.02929504  0.43389725     0.84300
C284        C  0.38887924  0.12415857  0.56466051     0.90600
O285        O  0.77896082  0.27795247  0.55052545    -0.73200
O286        O  0.84779935  0.21472175  0.44945843    -0.74200
O287        O  0.84557521  0.21356332  0.55106240    -0.62800
O288        O  0.78092881  0.27875364  0.44838561    -0.71200
O289        O  0.83008800  0.33177503  0.45087316    -0.70800
O290        O  0.89578711  0.26538813  0.55232487    -0.62000
O291        O  0.89698123  0.26746990  0.45062005    -0.74500
O292        O  0.82929793  0.32948330  0.55265161    -0.73300
Cu293      Cu  0.81152733  0.24447181  0.49977948     1.04600
Cu294      Cu  0.86472334  0.30035697  0.50165186     1.04300
C295        C  0.79342965  0.31377823  0.56794659     0.93000
C296        C  0.88363382  0.23092359  0.43427115     0.92100
C297        C  0.88097012  0.22901801  0.56801122     0.84300
C298        C  0.79534711  0.31539046  0.43318194     0.90600
O299        O  0.65762955  0.71700930  0.55233897    -0.73200
O300        O  0.72203804  0.78189793  0.44848792    -0.74200
O301        O  0.72053272  0.78547797  0.55062567    -0.62800
O302        O  0.65910994  0.71380574  0.45020434    -0.71200
O303        O  0.60589644  0.76304241  0.44825540    -0.70800
O304        O  0.66770543  0.83467962  0.54784108    -0.62000
O305        O  0.66935580  0.83166007  0.44636116    -0.74500
O306        O  0.60523568  0.76651039  0.54956318    -0.73300
Cu307      Cu  0.69171146  0.74783157  0.50052840     1.04600
Cu308      Cu  0.63524039  0.80065397  0.49783003     1.04700
C309        C  0.62089959  0.73133091  0.56726945     0.93000
C310        C  0.70606382  0.81732151  0.43154235     0.92100
C311        C  0.70401457  0.82158137  0.56499727     0.84300
C312        C  0.62251992  0.72711118  0.43379662     0.90600
C313        C  0.26107220  0.93715117  0.35697958    -0.09400
C314        C  0.23099727  0.96054405  0.32883463     0.06800
C315        C  0.22765497  0.00606297  0.33442140    -0.03200
C316        C  0.25321467  0.02726051  0.36850916    -0.07600
C317        C  0.28305962  0.00417421  0.39739912     0.05900
C318        C  0.28704413  0.95843133  0.39116343    -0.02700
Br319      Br  0.32565396  0.92270118  0.42886809    -0.02300
H320        H  0.26422399  0.90210359  0.35240305     0.09800
H321        H  0.25007096  0.06242121  0.37183461     0.07800
Br322      Br  0.19097230  0.04146139  0.29410653    -0.02800
C323        C  0.28471641  0.87650542  0.11454757    -0.09400
C324        C  0.27805726  0.83147647  0.10752852     0.06800
C325        C  0.24608325  0.80987658  0.13556038    -0.03200
C326        C  0.22148017  0.83348465  0.16879859    -0.07600
C327        C  0.22849029  0.87819733  0.17578482     0.05900
C328        C  0.26042631  0.89982340  0.14833828    -0.02700
Br329      Br  0.27120133  0.96137917  0.15457077    -0.02300
H330        H  0.30867714  0.89392722  0.09331953     0.09800
H331        H  0.19760200  0.81648664  0.19058912     0.07800
Br332      Br  0.23574627  0.74794208  0.13341659    -0.02800
C333        C  0.01339116  0.67603115  0.35263094    -0.09400
C334        C  0.03658744  0.70028131  0.31841147     0.06800
C335        C  0.08238333  0.70104476  0.32041892    -0.03200
C336        C  0.10425404  0.67803856  0.35654568    -0.07600
C337        C  0.08128008  0.65393895  0.39125464     0.05900
C338        C  0.03521458  0.65321960  0.38917091    -0.02700
Br339      Br  0.00001835  0.62500330  0.43706877    -0.02300
H340        H  0.97808813  0.67584006  0.35165316     0.09800
H341        H  0.13954680  0.67882975  0.35730395     0.07800
Br342      Br  0.11654945  0.73217103  0.27383524    -0.02800
C343        C  0.87745433  0.67902319  0.13640452    -0.09400
C344        C  0.90031335  0.66124071  0.09737662     0.06800
C345        C  0.94588968  0.66707954  0.09474640    -0.03200
C346        C  0.96770715  0.68954010  0.13130521    -0.07600
C347        C  0.94484169  0.70650108  0.17059049     0.05900
C348        C  0.89940605  0.70121617  0.17301771    -0.02700
Br349      Br  0.86644761  0.72242543  0.22655923    -0.02300
H350        H  0.84249542  0.67471413  0.13904610     0.09800
H351        H  0.00267963  0.69392146  0.12904630     0.07800
Br352      Br  0.97966511  0.64744547  0.04092750    -0.02800
C353        C  0.76114547  0.90912799  0.36280735    -0.09400
C354        C  0.77543457  0.88705560  0.32179810     0.06800
C355        C  0.76730238  0.84203216  0.31715432    -0.03200
C356        C  0.74528603  0.81961554  0.35361731    -0.07600
C357        C  0.73019920  0.84175916  0.39441025     0.05900
C358        C  0.73861422  0.88688269  0.39898953    -0.02700
Br359      Br  0.72288191  0.91906877  0.45520081    -0.02300
H360        H  0.76782506  0.94372906  0.36679723     0.09800
H361        H  0.73934493  0.78490590  0.34974281     0.07800
Br362      Br  0.78501630  0.81033949  0.26116484    -0.02800
C363        C  0.73952639  0.95333053  0.14865814    -0.09400
C364        C  0.77363896  0.97574930  0.17143655     0.06800
C365        C  0.78182375  0.01952941  0.15834801    -0.03200
C366        C  0.75604187  0.03986116  0.12346453    -0.07600
C367        C  0.72153738  0.01775417  0.10079052     0.05900
C368        C  0.71358835  0.97361655  0.11369367    -0.02700
Br369      Br  0.66904262  0.93804623  0.08503586    -0.02300
H370        H  0.73306519  0.91955031  0.15808567     0.09800
H371        H  0.76283142  0.07368783  0.11463196     0.07800
Br372      Br  0.82567690  0.05463606  0.18872915    -0.02800
C373        C  0.97654600  0.19075985  0.35437336    -0.09400
C374        C  0.95564672  0.15779980  0.32810682     0.06800
C375        C  0.91105899  0.14992389  0.33615718    -0.03200
C376        C  0.88858175  0.17401574  0.37081607    -0.07600
C377        C  0.90939114  0.20690355  0.39758944     0.05900
C378        C  0.95406213  0.21537213  0.38867354    -0.02700
Br379      Br  0.98738294  0.25893500  0.42211851    -0.02300
H380        H  0.01075281  0.19735027  0.34817020     0.09800
H381        H  0.85426294  0.16742685  0.37612298     0.07800
Br382      Br  0.87830672  0.10907806  0.29844789    -0.02800
C383        C  0.11169647  0.18387184  0.13837075    -0.09400
C384        C  0.08699216  0.21034538  0.10718264     0.06800
C385        C  0.04126391  0.21208800  0.11324591    -0.03200
C386        C  0.02151297  0.18747324  0.14961263    -0.07600
C387        C  0.04636400  0.16084963  0.18021549     0.05900
C388        C  0.09186486  0.15949080  0.17472323    -0.02700
Br389      Br  0.12855446  0.12673365  0.21752334    -0.02300
H390        H  0.14683732  0.18255908  0.13496960     0.09800
H391        H  0.98642253  0.18866930  0.15371129     0.07800
Br392      Br  0.00336095  0.24523084  0.07209284    -0.02800
C393        C  0.74401570  0.91590952  0.64329413    -0.09400
C394        C  0.77520237  0.89462746  0.67174708     0.06800
C395        C  0.78136253  0.84928990  0.66642941    -0.03200
C396        C  0.75804789  0.82652232  0.63137705    -0.07600
C397        C  0.72723819  0.84774851  0.60197009     0.05900
C398        C  0.71973094  0.89304919  0.60902744    -0.02700
Br399      Br  0.67752361  0.92660517  0.57368968    -0.02300
H400        H  0.73852831  0.95068121  0.64781037     0.09800
H401        H  0.76346649  0.79165607  0.62789069     0.07800
Br402      Br  0.81868589  0.81628793  0.70852065    -0.02800
C403        C  0.75516146  0.04720198  0.86830847    -0.09400
C404        C  0.72433165  0.02217255  0.89376587     0.06800
C405        C  0.72028469  0.97721949  0.88285642    -0.03200
C406        C  0.74561404  0.95900374  0.84631390    -0.07600
C407        C  0.77566001  0.98431601  0.82048650     0.05900
C408        C  0.78068892  0.02878656  0.83209078    -0.02700
Br409      Br  0.81987234  0.06663268  0.79795973    -0.02300
H410        H  0.75901827  0.08171134  0.87591211     0.09800
H411        H  0.74206680  0.92455048  0.83814989     0.07800
Br412      Br  0.68275469  0.93791480  0.91727109    -0.02800
C413        C  0.91136965  0.15083425  0.66966349    -0.09400
C414        C  0.95589444  0.15972522  0.67478241     0.06800
C415        C  0.97553881  0.19096737  0.64468276    -0.03200
C416        C  0.95045468  0.21312984  0.61049470    -0.07600
C417        C  0.90565509  0.20462157  0.60528692     0.05900
C418        C  0.88609369  0.17295361  0.63554612    -0.02700
Br419      Br  0.82495733  0.15947955  0.63464441    -0.02300
H420        H  0.89601490  0.12703104  0.69300848     0.09800
H421        H  0.96635037  0.23672230  0.58736942     0.07800
Br422      Br  0.03688999  0.20292251  0.64713718    -0.02800
C423        C  0.02073482  0.18585569  0.85704227    -0.09400
C424        C  0.04558623  0.16220506  0.82386963     0.06800
C425        C  0.09127904  0.16330258  0.82682742    -0.03200
C426        C  0.11145306  0.18680981  0.86353814    -0.07600
C427        C  0.08679554  0.21034361  0.89721215     0.05900
C428        C  0.04083699  0.20993399  0.89351469    -0.02700
Br429      Br  0.00343233  0.23956080  0.93800360    -0.02300
H430        H  0.98548365  0.18526836  0.85473599     0.09800
H431        H  0.14673055  0.18741914  0.86512951     0.07800
Br432      Br  0.12744434  0.13542229  0.77982600    -0.02800
C433        C  0.26668851  0.94656204  0.65523673    -0.09400
C434        C  0.23265529  0.96892718  0.67818523     0.06800
C435        C  0.22423775  0.01272726  0.66531091    -0.03200
C436        C  0.24881477  0.03278509  0.62931961    -0.07600
C437        C  0.28262597  0.01044251  0.60570930     0.05900
C438        C  0.29168509  0.96669877  0.61942796    -0.02700
Br439      Br  0.33633599  0.93146943  0.59042746    -0.02300
H440        H  0.27354950  0.91289488  0.66486645     0.09800
H441        H  0.24168936  0.06653175  0.62032482     0.07800
Br442      Br  0.18162494  0.04800212  0.69761414    -0.02800
C443        C  0.24772898  0.81405409  0.87059905    -0.09400
C444        C  0.27576022  0.83734493  0.90123582     0.06800
C445        C  0.27811812  0.88338243  0.89643218    -0.03200
C446        C  0.25420235  0.90457210  0.86037872    -0.07600
C447        C  0.22701912  0.88101669  0.82935942     0.05900
C448        C  0.22352909  0.83540987  0.83497179    -0.02700
Br449      Br  0.18824166  0.80043225  0.79305869    -0.02300
H450        H  0.24529834  0.77882624  0.87356417     0.09800
H451        H  0.25658509  0.93975843  0.85667880     0.07800
Br452      Br  0.31116016  0.91985126  0.93913438    -0.02800
C453        C  0.08052829  0.71296365  0.66540124    -0.09400
C454        C  0.03562607  0.70585210  0.67003276     0.06800
C455        C  0.01495448  0.67567558  0.63949655    -0.03200
C456        C  0.03934369  0.65322530  0.60508724    -0.07600
C457        C  0.08439695  0.66029002  0.60026804     0.05900
C458        C  0.10504852  0.69047462  0.63121390    -0.02700
Br459      Br  0.16673775  0.70102245  0.63136469    -0.02300
H460        H  0.09678923  0.73566756  0.68921984     0.09800
H461        H  0.02278433  0.63054220  0.58152749     0.07800
Br462      Br  0.95329813  0.66544614  0.64154692    -0.02800
C463        C  0.90070372  0.71651903  0.82593975    -0.09400
C464        C  0.94498339  0.70720550  0.81901170     0.06800
C465        C  0.96504304  0.67493004  0.84763927    -0.03200
C466        C  0.94067207  0.65233411  0.88202314    -0.07600
C467        C  0.89613865  0.66128497  0.88909412     0.05900
C468        C  0.87615260  0.69397091  0.86036178    -0.02700
Br469      Br  0.81538789  0.70864351  0.86401311    -0.02300
H470        H  0.88492085  0.74105383  0.80378194     0.09800
H471        H  0.95702896  0.62801246  0.90391328     0.07800
Br472      Br  0.02615737  0.66200736  0.84322853    -0.02800
C473        C  0.71832376  0.51553735  0.82323318    -0.09400
C474        C  0.71795594  0.46987860  0.82764459     0.06800
C475        C  0.74023783  0.44990416  0.86597800    -0.03200
C476        C  0.76345936  0.47562258  0.89862248    -0.07600
C477        C  0.76414374  0.52141634  0.89423318     0.05900
C478        C  0.74106653  0.54140658  0.85613040    -0.02700
Br479      Br  0.74136189  0.60341721  0.84527136    -0.02300
H480        H  0.70125048  0.53105966  0.79366929     0.09800
H481        H  0.78035347  0.45981942  0.92811842     0.07800
Br482      Br  0.73794480  0.38793159  0.87631798    -0.02800
C483        C  0.75458025  0.39846111  0.65917128    -0.09400
C484        C  0.71972694  0.37640404  0.68087400     0.06800
C485        C  0.70945960  0.33381082  0.66520566    -0.03200
C486        C  0.73357260  0.31456379  0.62827646    -0.07600
C487        C  0.76860861  0.33655121  0.60641220     0.05900
C488        C  0.77907755  0.37918418  0.62261297    -0.02700
Br489      Br  0.82554628  0.41421800  0.59694487    -0.02300
H490        H  0.76263872  0.43133344  0.67047974     0.09800
H491        H  0.72516650  0.28171452  0.61725357     0.07800
Br492      Br  0.66490760  0.29886162  0.69451151    -0.02800
C493        C  0.60257803  0.18771005  0.87089964    -0.09400
C494        C  0.58161078  0.15344997  0.89538323     0.06800
C495        C  0.53709180  0.14526118  0.88537992    -0.03200
C496        C  0.51552431  0.16991783  0.85027684    -0.07600
C497        C  0.53689268  0.20355641  0.82551839     0.05900
C498        C  0.58069935  0.21278240  0.83657623    -0.02700
Br499      Br  0.61319338  0.25776011  0.80459518    -0.02300
H500        H  0.63653211  0.19490599  0.87801033     0.09800
H501        H  0.48157624  0.16312654  0.84256986     0.07800
Br502      Br  0.50255587  0.10298916  0.91939203    -0.02800
C503        C  0.45603869  0.14904873  0.60681676    -0.09400
C504        C  0.41048620  0.15114634  0.60184493     0.06800
C505        C  0.38665169  0.17935257  0.63240659    -0.03200
C506        C  0.40847066  0.20447124  0.66664236    -0.07600
C507        C  0.45375284  0.20186362  0.67183187     0.05900
C508        C  0.47770299  0.17414114  0.64136213    -0.02700
Br509      Br  0.54008996  0.17075602  0.64433701    -0.02300
H510        H  0.47498449  0.12816012  0.58342862     0.09800
H511        H  0.38980765  0.22529239  0.69041076     0.07800
Br512      Br  0.32412367  0.18326392  0.63237000    -0.02800
C513        C  0.24079613  0.41069488  0.85338942    -0.09400
C514        C  0.26655740  0.38654422  0.82156382     0.06800
C515        C  0.27025636  0.34099285  0.82779142    -0.03200
C516        C  0.24752945  0.32029974  0.86495538    -0.07600
C517        C  0.22121783  0.34433590  0.89673660     0.05900
C518        C  0.21871167  0.39023187  0.89113274    -0.02700
Br519      Br  0.18885498  0.42751256  0.93562313    -0.02300
H520        H  0.23876603  0.44591421  0.84953934     0.09800
H521        H  0.25007852  0.28510646  0.86861676     0.07800
Br522      Br  0.30483400  0.30551561  0.78563606    -0.02800
C523        C  0.27054494  0.52460773  0.67177395    -0.09400
C524        C  0.26708459  0.47893721  0.67322954     0.06800
C525        C  0.24154593  0.45742237  0.63870450    -0.03200
C526        C  0.21883013  0.48176626  0.60431308    -0.07600
C527        C  0.22159261  0.52764706  0.60302375     0.05900
C528        C  0.24821342  0.54910024  0.63707834    -0.02700
Br529      Br  0.25406019  0.61149822  0.64015230    -0.02300
H530        H  0.29035658  0.54132275  0.69821151     0.09800
H531        H  0.19943557  0.46458456  0.57788428     0.07800
Br532      Br  0.23864226  0.39484403  0.63543407    -0.02800
C533        C  0.48252056  0.68348722  0.85494225    -0.09400
C534        C  0.45860961  0.65912794  0.82158460     0.06800
C535        C  0.41283168  0.65855759  0.82436057    -0.03200
C536        C  0.39178854  0.68164212  0.86081828    -0.07600
C537        C  0.41563205  0.70579736  0.89471794     0.05900
C538        C  0.46155802  0.70655316  0.89151230    -0.02700
Br539      Br  0.49787661  0.73543374  0.93767103    -0.02300
H540        H  0.51779161  0.68370645  0.85315129     0.09800
H541        H  0.35651778  0.68101564  0.86238527     0.07800
Br542      Br  0.37759858  0.62819243  0.77817876    -0.02800
C543        C  0.53239563  0.69299586  0.65423134    -0.09400
C544        C  0.55221456  0.65639694  0.67551073     0.06800
C545        C  0.59494400  0.64512965  0.66155070    -0.03200
C546        C  0.61632704  0.66982615  0.62631033    -0.07600
C547        C  0.59652402  0.70663297  0.60487672     0.05900
C548        C  0.55395696  0.71834663  0.61990978    -0.02700
Br549      Br  0.52229487  0.76836144  0.59648600    -0.02300
H550        H  0.49961589  0.70215568  0.66458376     0.09800
H551        H  0.64909439  0.66041598  0.61626848     0.07800
Br552      Br  0.62723931  0.59863939  0.69160142    -0.02800
C553        C  0.24258025  0.41022171  0.14987294    -0.09400
C554        C  0.26873069  0.38532868  0.18089218     0.06800
C555        C  0.27022251  0.33969922  0.17542466    -0.03200
C556        C  0.24670861  0.31975867  0.13856773    -0.07600
C557        C  0.22069179  0.34447720  0.10699226     0.05900
C558        C  0.21859625  0.39035524  0.11314458    -0.02700
Br559      Br  0.18552674  0.42828199  0.07187689    -0.02300
H560        H  0.24115505  0.44543780  0.15402821     0.09800
H561        H  0.24814142  0.28447534  0.13523948     0.07800
Br562      Br  0.30163237  0.30299313  0.21924420    -0.02800
C563        C  0.24797467  0.45200414  0.36535505    -0.09400
C564        C  0.27034927  0.47482110  0.32938067     0.06800
C565        C  0.26823771  0.52068498  0.32795174    -0.03200
C566        C  0.24397020  0.54317842  0.36231112    -0.07600
C567        C  0.22107095  0.52054503  0.39819139     0.05900
C568        C  0.22361237  0.47441598  0.39989434    -0.02700
Br569      Br  0.19709094  0.44030536  0.44993233    -0.02300
H570        H  0.24972615  0.41664231  0.36670177     0.09800
H571        H  0.24230159  0.57852353  0.36037134     0.07800
Br572      Br  0.29619593  0.55376974  0.27834875    -0.02800
C573        C  0.48349292  0.68483989  0.15156988    -0.09400
C574        C  0.45975954  0.65640355  0.18115489     0.06800
C575        C  0.41474849  0.65138160  0.17309376    -0.03200
C576        C  0.39447217  0.67390748  0.13555968    -0.07600
C577        C  0.41800367  0.70230360  0.10556096     0.05900
C578        C  0.46321332  0.70767946  0.11396444    -0.02700
Br579      Br  0.49988799  0.74362562  0.07449840    -0.02300
H580        H  0.51825351  0.68870094  0.15725612     0.09800
H581        H  0.35968741  0.66980891  0.13052097     0.07800
Br582      Br  0.37876380  0.61621139  0.21398786    -0.02800
C583        C  0.59180983  0.66888977  0.31873250    -0.09400
C584        C  0.55045493  0.65261501  0.33039490     0.06800
C585        C  0.53358863  0.65969606  0.37672740    -0.03200
C586        C  0.55752252  0.68413202  0.41004163    -0.07600
C587        C  0.59880358  0.70063291  0.39826187     0.05900
C588        C  0.61622731  0.69230025  0.35244174    -0.02700
Br589      Br  0.67218296  0.71403069  0.33350926    -0.02300
H590        H  0.60505139  0.66347343  0.28316103     0.09800
H591        H  0.54397774  0.69010223  0.44537120     0.07800
Br592      Br  0.47775877  0.63741182  0.39553266    -0.02800
C593        C  0.75486221  0.45512868  0.14818836    -0.09400
C594        C  0.72256872  0.47660983  0.17484476     0.06800
C595        C  0.71393530  0.52102238  0.16521330    -0.03200
C596        C  0.73680647  0.54276850  0.12890281    -0.07600
C597        C  0.76910616  0.52142411  0.10181115     0.05900
C598        C  0.77809017  0.47686028  0.11201856    -0.02700
Br599      Br  0.82023336  0.44264231  0.07753451    -0.02300
H600        H  0.76180954  0.42096739  0.15532523     0.09800
H601        H  0.72970762  0.57700170  0.12250136     0.07800
Br602      Br  0.67346419  0.55453230  0.20271522    -0.02800
C603        C  0.72996488  0.34099731  0.32081867    -0.09400
C604        C  0.72541059  0.38640953  0.32451527     0.06800
C605        C  0.74404434  0.40843817  0.36372037    -0.03200
C606        C  0.76716306  0.38483543  0.39855011    -0.07600
C607        C  0.77152562  0.33920635  0.39518043     0.05900
C608        C  0.75287177  0.31728471  0.35562235    -0.02700
Br609      Br  0.75987336  0.25560498  0.34537521    -0.02300
H610        H  0.71591516  0.32398730  0.29043003     0.09800
H611        H  0.78107773  0.40208042  0.42883999     0.07800
Br612      Br  0.73737233  0.47034326  0.37177427    -0.02800
C613        C  0.51462502  0.17459892  0.13905903    -0.09400
C614        C  0.53856531  0.20170513  0.16985459     0.06800
C615        C  0.58401103  0.20437760  0.16482018    -0.03200
C616        C  0.60490709  0.17955847  0.12985908    -0.07600
C617        C  0.58134169  0.15180868  0.09920984     0.05900
C618        C  0.53547954  0.15001696  0.10349808    -0.02700
Br619      Br  0.49915848  0.11708595  0.06065478    -0.02300
H620        H  0.47950740  0.17276938  0.14260816     0.09800
H621        H  0.64007491  0.18153427  0.12720378     0.07800
Br622      Br  0.61939236  0.23955118  0.20646342    -0.02800
C623        C  0.48054626  0.16641018  0.35030045    -0.09400
C624        C  0.45623257  0.19608675  0.32270408     0.06800
C625        C  0.41104295  0.19904256  0.32971404    -0.03200
C626        C  0.39096318  0.17349037  0.36479908    -0.07600
C627        C  0.41505907  0.14409675  0.39328645     0.05900
C628        C  0.46054711  0.14047299  0.38543874    -0.02700
Br629      Br  0.49798063  0.10246985  0.42195404    -0.02300
H630        H  0.51537305  0.16365462  0.34465166     0.09800
H631        H  0.35602163  0.17634790  0.36932442     0.07800
Br632      Br  0.37489125  0.23549463  0.29025710    -0.02800
loop_ 
_geom_bond_atom_site_label_1 
_geom_bond_atom_site_label_2 
_geom_bond_distance 
_geom_bond_site_symmetry_2 
_ccdc_geom_bond_type 
C1            C2   1.402       .  A
C1            C6   1.398       .  A
C1          C614   1.471       .  S
C2            C3   1.404       .  A
C2            H7   1.084       .  S
C3            C4   1.406       .  A
C3           C20   1.477       .  S
C4            C5   1.405       .  A
C4            H8   1.084       .  S
C5            C6   1.398       .  A
C5          C624   1.475       .  S
C6            H9   1.085       .  S
O10         Cu18   2.007       .  S
O10          C20   1.278       .  A
O11         Cu18   2.006       .  S
O11          C21   1.278       .  A
O12         Cu18   2.008       .  S
O12          C22   1.277       .  A
O13         Cu18   2.008       .  S
O13          C23   1.278       .  A
O14         Cu19   2.016       .  S
O14          C23   1.279       .  A
O15         Cu19   2.012       .  S
O15          C22   1.279       .  A
O16         Cu19   2.011       .  S
O16          C21   1.278       .  A
O17         Cu19   2.012       .  S
O17          C20   1.278       .  A
Cu18        Cu19   2.370       .  S
C21          C37   1.476       .  S
C22          C26   1.477       .  S
C23          C44   1.477       .  S
C24          C25   1.400       .  A
C24          C29   1.401       .  A
C24         C604   1.471       .  S
C25          C26   1.402       .  A
C25          H30   1.084       .  S
C26          C27   1.407       .  A
C27          C28   1.407       .  A
C27          H31   1.084       .  S
C28          C29   1.404       .  A
C28         C594   1.484       .  S
C29          H32   1.084       .  S
C33          C34   1.403       .  A
C33          C38   1.402       .  A
C33         C574   1.481       .  S
C34          C35   1.404       .  A
C34          H39   1.084       .  S
C35          C36   1.404       .  A
C35         C584   1.477       .  S
C36          C37   1.406       .  A
C36          H40   1.083       .  S
C37          C38   1.402       .  A
C38          H41   1.086       .  S
C42          C43   1.403       .  A
C42          C47   1.399       .  A
C42         C564   1.471       .  S
C43          C44   1.405       .  A
C43          H48   1.084       .  S
C44          C45   1.406       .  A
C45          C46   1.404       .  A
C45          H49   1.084       .  S
C46          C47   1.399       .  A
C46         C554   1.476       .  S
C47          H50   1.085       .  S
C51          C52   1.398       .  A
C51          C56   1.399       .  A
C51         C534   1.473       .  S
C52          C53   1.401       .  A
C52          H57   1.084       .  S
C53          C54   1.407       .  A
C53          C72   1.474       .  S
C54          C55   1.408       .  A
C54          H58   1.083       .  S
C55          C56   1.405       .  A
C55         C544   1.487       .  S
C56          H59   1.084       .  S
O60         Cu68   1.996       .  S
O60          C70   1.276       .  A
O61         Cu68   1.997       .  S
O61          C71   1.277       .  A
O62         Cu68   2.007       .  S
O62          C72   1.279       .  A
O63         Cu68   2.007       .  S
O63          C73   1.278       .  A
O64         Cu69   2.004       .  S
O64          C73   1.277       .  A
O65         Cu69   2.006       .  S
O65          C72   1.277       .  A
O66         Cu69   2.006       .  S
O66          C71   1.278       .  A
O67         Cu69   2.007       .  S
O67          C70   1.278       .  A
Cu68        Cu69   2.372       .  S
C70          C76   1.470       .  S
C71          C96   1.471       .  S
C73          C85   1.474       .  S
C74          C75   1.401       .  A
C74          C79   1.404       .  A
C74         C524   1.474       .  S
C75          C76   1.401       .  A
C75          H80   1.084       .  S
C76          C77   1.403       .  A
C77          C78   1.401       .  A
C77          H81   1.084       .  S
C78          C79   1.403       .  A
C78         C514   1.476       .  S
C79          H82   1.085       .  S
C83          C84   1.402       .  A
C83          C88   1.401       .  A
C83         C497   1.477       .  S
C84          C85   1.403       .  A
C84          H89   1.084       .  S
C85          C86   1.405       .  A
C86          C87   1.403       .  A
C86          H90   1.084       .  S
C87          C88   1.401       .  A
C87         C507   1.477       .  S
C88          H91   1.084       .  S
C92          C93   1.407       .  A
C92          C97   1.405       .  A
C92         C484   1.485       .  S
C93          C94   1.401       .  A
C93          H98   1.084       .  S
C94          C95   1.398       .  A
C94         C474   1.474       .  S
C95          C96   1.402       .  A
C95          H99   1.084       .  S
C96          C97   1.403       .  A
C97         H100   1.083       .  S
C101        C102   1.401   1_455  A
C101        C106   1.401       .  A
C101        C454   1.477       .  S
C102        C103   1.403       .  A
C102        H107   1.084       .  S
C103        C104   1.405       .  A
C103        C464   1.480       .  S
C104        C105   1.405       .  A
C104        H108   1.084       .  S
C105        C106   1.402   1_655  A
C105        C122   1.475       .  S
C106        H109   1.084       .  S
O110       Cu118   2.012       .  S
O110        C120   1.278       .  A
O111       Cu118   2.008   1_655  S
O111        C121   1.278       .  A
O112       Cu118   2.010   1_655  S
O112        C122   1.278       .  A
O113       Cu118   2.010       .  S
O113        C123   1.278   1_565  A
O114       Cu119   2.003       .  S
O114        C123   1.278   1_565  A
O115       Cu119   2.003       .  S
O115        C122   1.278   1_455  A
O116       Cu119   2.009   1_655  S
O116        C121   1.278       .  A
O117       Cu119   2.012       .  S
O117        C120   1.279       .  A
Cu118      Cu119   2.370       .  S
C120        C128   1.479       .  S
C121        C146   1.475       .  S
C123        C137   1.474       .  S
C124        C125   1.402       .  A
C124        C129   1.404       .  A
C124        C447   1.479       .  S
C125        C126   1.403       .  A
C125        H130   1.085       .  S
C126        C127   1.405       .  A
C126        C434   1.484       .  S
C127        C128   1.404       .  A
C127        H131   1.083       .  S
C128        C129   1.405       .  A
C129        H132   1.083       .  S
C133        C134   1.401   1_655  A
C133        C138   1.401       .  A
C133        C414   1.475       .  S
C134        C135   1.400       .  A
C134        H139   1.084   1_455  S
C135        C136   1.403       .  A
C135        C424   1.473       .  S
C136        C137   1.404       .  A
C136        H140   1.084       .  S
C137        C138   1.404   1_455  A
C138        H141   1.085       .  S
C142        C143   1.402       .  A
C142        C147   1.404       .  A
C142        C407   1.479       .  S
C143        C144   1.400       .  A
C143        H148   1.085       .  S
C144        C145   1.403       .  A
C144        C394   1.478       .  S
C145        C146   1.404       .  A
C145        H149   1.084       .  S
C146        C147   1.405       .  A
C147        H150   1.083       .  S
C151        C152   1.407       .  A
C151        C156   1.401   1_655  A
C151        C374   1.482       .  S
C152        C153   1.407   1_655  A
C152        H157   1.084       .  S
C153        C154   1.405       .  A
C153        C170   1.480       .  S
C154        C155   1.403       .  A
C154        H158   1.084       .  S
C155        C156   1.399       .  A
C155        C387   1.476       .  S
C156        H159   1.085       .  S
O160       Cu168   2.017       .  S
O160        C170   1.279   1_565  A
O161       Cu168   2.013   1_655  S
O161        C171   1.278       .  A
O162       Cu168   2.011   1_655  S
O162        C172   1.278       .  A
O163       Cu168   2.017       .  S
O163        C173   1.279       .  A
O164       Cu169   2.014       .  S
O164        C173   1.279       .  A
O165       Cu169   2.008   1_655  S
O165        C172   1.278       .  A
O166       Cu169   2.006       .  S
O166        C171   1.278   1_455  A
O167       Cu169   2.012       .  S
O167        C170   1.278   1_565  A
Cu168      Cu169   2.369       .  S
C171        C185   1.476       .  S
C172        C176   1.477       .  S
C173        C194   1.481       .  S
C174        C175   1.407       .  A
C174        C179   1.404       .  A
C174        C364   1.485       .  S
C175        C176   1.406       .  A
C175        H180   1.083       .  S
C176        C177   1.404       .  A
C177        C178   1.399       .  A
C177        H181   1.084       .  S
C178        C179   1.399       .  A
C178        C354   1.472       .  S
C179        H182   1.084       .  S
C183        C184   1.402       .  A
C183        C188   1.401   1_455  A
C183        C334   1.476       .  S
C184        C185   1.403   1_455  A
C184        H189   1.084       .  S
C185        C186   1.406       .  A
C186        C187   1.404       .  A
C186        H190   1.084       .  S
C187        C188   1.402       .  A
C187        C347   1.474       .  S
C188        H191   1.084       .  S
C192        C193   1.405       .  A
C192        C197   1.399       .  A
C192        C327   1.476       .  S
C193        C194   1.407       .  A
C193        H198   1.084       .  S
C194        C195   1.406       .  A
C195        C196   1.405       .  A
C195        H199   1.084       .  S
C196        C197   1.397       .  A
C196        C314   1.476       .  S
C197        H200   1.085       .  S
O201       Cu209   2.010       .  S
O201        C211   1.277       .  A
O202       Cu209   2.009   1_556  S
O202        C212   1.277       .  A
O203       Cu209   2.012       .  S
O203        C213   1.278       .  A
O204       Cu209   2.012   1_556  S
O204        C214   1.278       .  A
O205       Cu210   2.005   1_556  S
O205        C214   1.278       .  A
O206       Cu210   2.003       .  S
O206        C213   1.278       .  A
O207       Cu210   2.004   1_556  S
O207        C212   1.278       .  A
O208       Cu210   2.005       .  S
O208        C211   1.278       .  A
Cu209      Cu210   2.369       .  S
C211        C557   1.482       .  S
C212        C427   1.479       .  S
C213        C384   1.482       .  S
C214        C517   1.483       .  S
O215       Cu223   2.017   1_554  S
O215        C225   1.278       .  A
O216       Cu223   2.018       .  S
O216        C226   1.279       .  A
O217       Cu223   2.009   1_554  S
O217        C227   1.276       .  A
O218       Cu223   2.003       .  S
O218        C228   1.276       .  A
O219       Cu224   2.002       .  S
O219        C228   1.278       .  A
O220       Cu224   2.003   1_554  S
O220        C227   1.279       .  A
O221       Cu224   1.991       .  S
O221        C226   1.276       .  A
O222       Cu224   1.986   1_554  S
O222        C225   1.276       .  A
Cu223      Cu224   2.366       .  S
C225        C617   1.478       .  S
C226        C404   1.485       .  S
C227        C367   1.489       .  S
C228        C494   1.483       .  S
O229       Cu237   2.008       .  S
O229        C239   1.279       .  A
O230       Cu237   2.010   1_554  S
O230        C240   1.277       .  A
O231       Cu237   2.008       .  S
O231        C241   1.278       .  A
O232       Cu237   2.008   1_554  S
O232        C242   1.277       .  A
O233       Cu238   2.011   1_554  S
O233        C242   1.278       .  A
O234       Cu238   2.009       .  S
O234        C241   1.277       .  A
O235       Cu238   2.014   1_554  S
O235        C240   1.280       .  A
O236       Cu238   2.015       .  S
O236        C239   1.278       .  A
Cu237      Cu238   2.368       .  S
C239        C467   1.489       .  S
C240        C597   1.490       .  S
C241        C477   1.477       .  S
C242        C344   1.478       .  S
O243       Cu251   2.010       .  S
O243        C253   1.276       .  A
O244       Cu251   2.009   1_556  S
O244        C254   1.277       .  A
O245       Cu251   2.013       .  S
O245        C255   1.279       .  A
O246       Cu251   2.011   1_556  S
O246        C256   1.278       .  A
O247       Cu252   1.998   1_556  S
O247        C256   1.277       .  A
O248       Cu252   1.994       .  S
O248        C255   1.275       .  A
O249       Cu252   2.009   1_556  S
O249        C254   1.278       .  A
O250       Cu252   2.012       .  S
O250        C253   1.280       .  A
Cu251      Cu252   2.368       .  S
C253        C577   1.485       .  S
C254        C444   1.485       .  S
C255        C324   1.484       .  S
C256        C537   1.477       .  S
O257       Cu265   2.010       .  S
O257        C267   1.279       .  A
O258       Cu265   2.011       .  S
O258        C268   1.277       .  A
O259       Cu265   2.001       .  S
O259        C269   1.277       .  A
O260       Cu265   2.000       .  S
O260        C270   1.276       .  A
O261       Cu266   2.005       .  S
O261        C270   1.278       .  A
O262       Cu266   2.005       .  S
O262        C269   1.277       .  A
O263       Cu266   2.002       .  S
O263        C268   1.278       .  A
O264       Cu266   2.010       .  S
O264        C267   1.277       .  A
Cu265      Cu266   2.370       .  S
C267        C337   1.482       .  S
C268        C527   1.480       .  S
C269        C567   1.476       .  S
C270        C457   1.480       .  S
O271       Cu279   2.009       .  S
O271        C281   1.276       .  A
O272       Cu279   2.008       .  S
O272        C282   1.276       .  A
O273       Cu279   2.025       .  S
O273        C283   1.279       .  A
O274       Cu279   2.023       .  S
O274        C284   1.280       .  A
O275       Cu280   1.989       .  S
O275        C284   1.274       .  A
O276       Cu280   1.987       .  S
O276        C283   1.276       .  A
O277       Cu280   2.004       .  S
O277        C282   1.279       .  A
O278       Cu280   2.002       .  S
O278        C281   1.278       .  A
Cu279      Cu280   2.366       .  S
C281        C627   1.484       .  S
C282        C437   1.488       .  S
C283        C317   1.484       .  S
C284        C504   1.482       .  S
O285       Cu293   2.013       .  S
O285        C295   1.280       .  A
O286       Cu293   2.010       .  S
O286        C296   1.279       .  A
O287       Cu293   2.003       .  S
O287        C297   1.276       .  A
O288       Cu293   2.004       .  S
O288        C298   1.277       .  A
O289       Cu294   2.010       .  S
O289        C298   1.278       .  A
O290       Cu294   2.007       .  S
O290        C297   1.279       .  A
O291       Cu294   2.005       .  S
O291        C296   1.276       .  A
O292       Cu294   2.000       .  S
O292        C295   1.275       .  A
Cu293      Cu294   2.366       .  S
C295        C487   1.489       .  S
C296        C377   1.488       .  S
C297        C417   1.483       .  S
C298        C607   1.476       .  S
O299       Cu307   2.016       .  S
O299        C309   1.279       .  A
O300       Cu307   2.012       .  S
O300        C310   1.278       .  A
O301       Cu307   2.016       .  S
O301        C311   1.280       .  A
O302       Cu307   2.014       .  S
O302        C312   1.278       .  A
O303       Cu308   2.012       .  S
O303        C312   1.277       .  A
O304       Cu308   2.006       .  S
O304        C311   1.276       .  A
O305       Cu308   2.012       .  S
O305        C310   1.278       .  A
O306       Cu308   2.003       .  S
O306        C309   1.276       .  A
Cu307      Cu308   2.369       .  S
C309        C547   1.492       .  S
C310        C357   1.475       .  S
C311        C397   1.488       .  S
C312        C587   1.473       .  S
C313        C314   1.404       .  A
C313        C318   1.403       .  A
C313        H320   1.084       .  S
C314        C315   1.405   1_565  A
C315        C316   1.393       .  A
C315       Br322   1.920       .  S
C316        C317   1.407       .  A
C316        H321   1.084       .  S
C317        C318   1.416   1_545  A
C318       Br319   1.921       .  S
C323        C324   1.407       .  A
C323        C328   1.398       .  A
C323        H330   1.084       .  S
C324        C325   1.418       .  A
C325        C326   1.397       .  A
C325       Br332   1.922       .  S
C326        C327   1.399       .  A
C326        H331   1.085       .  S
C327        C328   1.408       .  A
C328       Br329   1.921       .  S
C333        C334   1.402       .  A
C333        C338   1.401       .  A
C333        H340   1.084   1_455  S
C334        C335   1.407       .  A
C335        C336   1.397       .  A
C335       Br342   1.920       .  S
C336        C337   1.405       .  A
C336        H341   1.084       .  S
C337        C338   1.415       .  A
C338       Br339   1.921       .  S
C343        C344   1.405       .  A
C343        C348   1.399       .  A
C343        H350   1.084       .  S
C344        C345   1.413       .  A
C345        C346   1.400       .  A
C345       Br352   1.920       .  S
C346        C347   1.401       .  A
C346        H351   1.084   1_655  S
C347        C348   1.406       .  A
C348       Br349   1.917       .  S
C353        C354   1.399       .  A
C353        C358   1.398       .  A
C353        H360   1.084       .  S
C354        C355   1.406       .  A
C355        C356   1.399       .  A
C355       Br362   1.917       .  S
C356        C357   1.403       .  A
C356        H361   1.083       .  S
C357        C358   1.411       .  A
C358       Br359   1.913       .  S
C363        C364   1.404       .  A
C363        C368   1.400       .  A
C363        H370   1.084       .  S
C364        C365   1.410   1_565  A
C365        C366   1.396       .  A
C365       Br372   1.920       .  S
C366        C367   1.407       .  A
C366        H371   1.083       .  S
C367        C368   1.418   1_545  A
C368       Br369   1.923       .  S
C373        C374   1.403       .  A
C373        C378   1.400       .  A
C373        H380   1.083   1_655  S
C374        C375   1.408       .  A
C375        C376   1.398       .  A
C375       Br382   1.919       .  S
C376        C377   1.407       .  A
C376        H381   1.083       .  S
C377        C378   1.418       .  A
C378       Br379   1.923       .  S
C383        C384   1.406       .  A
C383        C388   1.396       .  A
C383        H390   1.084       .  S
C384        C385   1.415       .  A
C385        C386   1.399       .  A
C385       Br392   1.919       .  S
C386        C387   1.401       .  A
C386        H391   1.084   1_455  S
C387        C388   1.406       .  A
C388       Br389   1.918       .  S
C393        C394   1.401       .  A
C393        C398   1.399       .  A
C393        H400   1.084       .  S
C394        C395   1.408       .  A
C395        C396   1.398       .  A
C395       Br402   1.922       .  S
C396        C397   1.407       .  A
C396        H401   1.084       .  S
C397        C398   1.419       .  A
C398       Br399   1.920       .  S
C403        C404   1.409       .  A
C403        C408   1.397       .  A
C403        H410   1.084       .  S
C404        C405   1.415   1_545  A
C405        C406   1.398       .  A
C405       Br412   1.921       .  S
C406        C407   1.403       .  A
C406        H411   1.084       .  S
C407        C408   1.408   1_565  A
C408       Br409   1.921       .  S
C413        C414   1.401       .  A
C413        C418   1.398       .  A
C413        H420   1.083       .  S
C414        C415   1.406       .  A
C415        C416   1.397       .  A
C415       Br422   1.920   1_655  S
C416        C417   1.407       .  A
C416        H421   1.083       .  S
C417        C418   1.417       .  A
C418       Br419   1.922       .  S
C423        C424   1.401       .  A
C423        C428   1.399       .  A
C423        H430   1.084   1_455  S
C424        C425   1.405       .  A
C425        C426   1.396       .  A
C425       Br432   1.918       .  S
C426        C427   1.405       .  A
C426        H431   1.084       .  S
C427        C428   1.414       .  A
C428       Br429   1.919       .  S
C433        C434   1.404       .  A
C433        C438   1.401       .  A
C433        H440   1.084       .  S
C434        C435   1.409   1_565  A
C435        C436   1.396       .  A
C435       Br442   1.921       .  S
C436        C437   1.407       .  A
C436        H441   1.084       .  S
C437        C438   1.418   1_545  A
C438       Br439   1.922       .  S
C443        C444   1.407       .  A
C443        C448   1.399       .  A
C443        H450   1.083       .  S
C444        C445   1.416       .  A
C445        C446   1.400       .  A
C445       Br452   1.922       .  S
C446        C447   1.402       .  A
C446        H451   1.084       .  S
C447        C448   1.408       .  A
C448       Br449   1.920       .  S
C453        C454   1.402       .  A
C453        C458   1.396       .  A
C453        H460   1.083       .  S
C454        C455   1.408       .  A
C455        C456   1.398       .  A
C455       Br462   1.920   1_455  S
C456        C457   1.407       .  A
C456        H461   1.083       .  S
C457        C458   1.415       .  A
C458       Br459   1.921       .  S
C463        C464   1.402       .  A
C463        C468   1.401       .  A
C463        H470   1.084       .  S
C464        C465   1.408       .  A
C465        C466   1.398       .  A
C465       Br472   1.921   1_655  S
C466        C467   1.408       .  A
C466        H471   1.083       .  S
C467        C468   1.417       .  A
C468       Br469   1.921       .  S
C473        C474   1.402       .  A
C473        C478   1.399       .  A
C473        H480   1.083       .  S
C474        C475   1.405       .  A
C475        C476   1.399       .  A
C475       Br482   1.918       .  S
C476        C477   1.406       .  A
C476        H481   1.083       .  S
C477        C478   1.412       .  A
C478       Br479   1.920       .  S
C483        C484   1.402       .  A
C483        C488   1.398       .  A
C483        H490   1.083       .  S
C484        C485   1.411       .  A
C485        C486   1.398       .  A
C485       Br492   1.919       .  S
C486        C487   1.407       .  A
C486        H491   1.083       .  S
C487        C488   1.418       .  A
C488       Br489   1.923       .  S
C493        C494   1.406       .  A
C493        C498   1.395       .  A
C493        H500   1.084       .  S
C494        C495   1.417       .  A
C495        C496   1.398       .  A
C495       Br502   1.922       .  S
C496        C497   1.401       .  A
C496        H501   1.084       .  S
C497        C498   1.408       .  A
C498       Br499   1.918       .  S
C503        C504   1.406       .  A
C503        C508   1.400       .  A
C503        H510   1.083       .  S
C504        C505   1.417       .  A
C505        C506   1.397       .  A
C505       Br512   1.923       .  S
C506        C507   1.399       .  A
C506        H511   1.084       .  S
C507        C508   1.408       .  A
C508       Br509   1.919       .  S
C513        C514   1.400       .  A
C513        C518   1.398       .  A
C513        H520   1.084       .  S
C514        C515   1.408       .  A
C515        C516   1.399       .  A
C515       Br522   1.921       .  S
C516        C517   1.407       .  A
C516        H521   1.084       .  S
C517        C518   1.414       .  A
C518       Br519   1.919       .  S
C523        C524   1.402       .  A
C523        C528   1.399       .  A
C523        H530   1.084       .  S
C524        C525   1.405       .  A
C525        C526   1.397       .  A
C525       Br532   1.919       .  S
C526        C527   1.407       .  A
C526        H531   1.084       .  S
C527        C528   1.414       .  A
C528       Br529   1.920       .  S
C533        C534   1.400       .  A
C533        C538   1.398       .  A
C533        H540   1.084       .  S
C534        C535   1.408       .  A
C535        C536   1.397       .  A
C535       Br542   1.921       .  S
C536        C537   1.406       .  A
C536        H541   1.084       .  S
C537        C538   1.413       .  A
C538       Br539   1.918       .  S
C543        C544   1.403       .  A
C543        C548   1.397       .  A
C543        H550   1.084       .  S
C544        C545   1.411       .  A
C545        C546   1.401       .  A
C545       Br552   1.922       .  S
C546        C547   1.410       .  A
C546        H551   1.083       .  S
C547        C548   1.418       .  A
C548       Br549   1.923       .  S
C553        C554   1.401       .  A
C553        C558   1.400       .  A
C553        H560   1.085       .  S
C554        C555   1.405       .  A
C555        C556   1.396       .  A
C555       Br562   1.915       .  S
C556        C557   1.406       .  A
C556        H561   1.084       .  S
C557        C558   1.416       .  A
C558       Br559   1.919       .  S
C563        C564   1.400       .  A
C563        C568   1.399       .  A
C563        H570   1.084       .  S
C564        C565   1.405       .  A
C565        C566   1.396       .  A
C565       Br572   1.915       .  S
C566        C567   1.404       .  A
C566        H571   1.084       .  S
C567        C568   1.414       .  A
C568       Br569   1.921       .  S
C573        C574   1.402       .  A
C573        C578   1.402       .  A
C573        H580   1.085       .  S
C574        C575   1.408       .  A
C575        C576   1.396       .  A
C575       Br582   1.917       .  S
C576        C577   1.405       .  A
C576        H581   1.084       .  S
C577        C578   1.417       .  A
C578       Br579   1.919       .  S
C583        C584   1.402       .  A
C583        C588   1.400       .  A
C583        H590   1.084       .  S
C584        C585   1.408       .  A
C585        C586   1.401       .  A
C585       Br592   1.918       .  S
C586        C587   1.404       .  A
C586        H591   1.084       .  S
C587        C588   1.408       .  A
C588       Br589   1.917       .  S
C593        C594   1.403       .  A
C593        C598   1.401       .  A
C593        H600   1.084       .  S
C594        C595   1.409       .  A
C595        C596   1.399       .  A
C595       Br602   1.921       .  S
C596        C597   1.408       .  A
C596        H601   1.084       .  S
C597        C598   1.418       .  A
C598       Br599   1.922       .  S
C603        C604   1.400       .  A
C603        C608   1.397       .  A
C603        H610   1.084       .  S
C604        C605   1.406       .  A
C605        C606   1.399       .  A
C605       Br612   1.918       .  S
C606        C607   1.405       .  A
C606        H611   1.084       .  S
C607        C608   1.412       .  A
C608       Br609   1.921       .  S
C613        C614   1.402       .  A
C613        C618   1.400       .  A
C613        H620   1.084       .  S
C614        C615   1.405       .  A
C615        C616   1.393       .  A
C615       Br622   1.921       .  S
C616        C617   1.406       .  A
C616        H621   1.084       .  S
C617        C618   1.414       .  A
C618       Br619   1.920       .  S
C623        C624   1.402       .  A
C623        C628   1.401       .  A
C623        H630   1.084       .  S
C624        C625   1.404       .  A
C625        C626   1.394       .  A
C625       Br632   1.915       .  S
C626        C627   1.406       .  A
C626        H631   1.084       .  S
C627        C628   1.418       .  A
C628       Br629   1.922       .  S
