geometry optimzed in LAMMPS
_audit_creation_date              2020-11-30 
_audit_creation_method            'lammps2cif' 
_symmetry_space_group_name_H-M    'P1' 
_symmetry_Int_Tables_number       1 
_symmetry_cell_setting            triclinic 
loop_ 
_symmetry_equiv_pos_as_xyz 
  x,y,z 
_cell_length_a                    32.07282211314314 
_cell_length_b                    33.41495385337341 
_cell_length_c                    29.80210396741481 
_cell_angle_alpha                 90.52371047358002 
_cell_angle_beta                  88.76423160748168 
_cell_angle_gamma                 91.72367428062199 
loop_ 
_atom_site_label 
_atom_site_type_symbol 
_atom_site_fract_x 
_atom_site_fract_y 
_atom_site_fract_z 
_atom_site_charge 
O1          O  0.27091934  0.00822139  0.57169700    -0.80590
O2          O  0.05579104  0.32103256  0.56174637    -0.80620
O3          O  0.31866900  0.26372014  0.54874617    -0.80630
O4          O  0.03768266  0.09340098  0.51740404    -0.80570
O5          O  0.04855808  0.24540705  0.52735034    -0.80690
O6          O  0.32818827  0.06751475  0.56864684    -0.80610
O7          O  0.09082302  0.03081250  0.51854263    -0.80590
O8          O  0.24373576  0.29958122  0.52512099    -0.80630
C9          C  0.24033441  0.31982357  0.56094700     1.09100
C10         C  0.08798244  0.00974207  0.55426502     1.08980
C11         C  0.01612422  0.23964033  0.55143349     1.09120
C12         C  0.02002853  0.09485380  0.55608431     1.09000
O13         O  0.29882927  0.09253772  0.48237483    -0.80600
O14         O  0.00992854  0.26408226  0.45106140    -0.80670
O15         O  0.27532224  0.31820961  0.43793035    -0.80610
O16         O  0.06208340  0.00753159  0.42762056    -0.80590
O17         O  0.08616376  0.29982453  0.47493965    -0.80640
O18         O  0.24270432  0.02901363  0.48045842    -0.80610
O19         O  0.00747426  0.06739700  0.43075469    -0.80560
O20         O  0.27944216  0.24344087  0.47210624    -0.80630
Co21       Co  0.28777016  0.04707298  0.52507194     1.51530
Co22       Co  0.03067867  0.29505234  0.50831792     1.51690
Co23       Co  0.29915959  0.29393009  0.49159605     1.51570
Co24       Co  0.04668100  0.04739624  0.47426273     1.51470
O25         O  0.33286597  0.01168478  0.49957421    -1.42530
C26         C  0.31653244  0.09420184  0.44378796     1.09020
C27         C  0.31180646  0.23908525  0.44772261     1.09110
C28         C  0.24430062  0.34000663  0.44522082     1.09050
C29         C  0.09072330  0.98496103  0.43836611     1.09020
C30         C  0.32910381  0.16903191  0.34905852     0.02670
C31         C  0.32558473  0.13224450  0.37187111    -0.13480
C32         C  0.31481362  0.13114389  0.41765912     0.00170
C33         C  0.30797490  0.16688613  0.44060066    -0.12000
C34         C  0.31446766  0.20354923  0.41938518     0.02660
C35         C  0.32463640  0.20497748  0.37346696    -0.11420
H36         H  0.33068938  0.10447476  0.35377571     0.08260
H37         H  0.30051691  0.16646999  0.47627389     0.05790
H38         H  0.32727789  0.23361188  0.35673594     0.05630
C39         C  0.17189825  0.33512801  0.34512505     0.02670
C40         C  0.20849236  0.33981751  0.37037021    -0.13480
C41         C  0.20682007  0.33428775  0.41704097     0.00170
C42         C  0.16880447  0.98784970  0.43723506    -0.12000
C43         C  0.13142847  0.32030480  0.41354231     0.02660
C44         C  0.13331578  0.32735747  0.36730577    -0.11420
H45         H  0.23789052  0.34798579  0.35382510     0.08260
H46         H  0.16816381  0.97835251  0.47156421     0.05790
H47         H  0.10479112  0.32615264  0.34840589     0.05630
C48         C  0.15750596  0.32358894  0.65396581     0.02670
C49         C  0.19622239  0.31933593  0.63132838    -0.13480
C50         C  0.19971075  0.32418859  0.58488912     0.00170
C51         C  0.16502603  0.00416685  0.56192986    -0.12000
C52         C  0.12524823  0.33840369  0.58258484     0.02660
C53         C  0.12158091  0.33020490  0.62873030    -0.11420
H54         H  0.22393677  0.31304639  0.64988256     0.08260
H55         H  0.16909872  0.01440979  0.52803658     0.05790
H56         H  0.09112901  0.33013294  0.64515599     0.05630
C57         C  0.33796062  0.16990345  0.65064788     0.02670
C58         C  0.34558289  0.13320619  0.62862683    -0.13480
C59         C  0.35471772  0.13227838  0.58229663     0.00170
C60         C  0.35760863  0.16805272  0.55876504    -0.12000
C61         C  0.34714285  0.20406122  0.57938003     0.02660
C62         C  0.33610647  0.20501220  0.62498455    -0.11420
H63         H  0.34460894  0.10554341  0.64736423     0.08260
H64         H  0.36492602  0.16763856  0.52305744     0.05790
H65         H  0.32802651  0.23315518  0.64074945     0.05630
C66         C  0.16031886  0.34097314  0.15181758     0.02670
C67         C  0.15281590  0.30346434  0.13089277    -0.13480
C68         C  0.14279806  0.30098495  0.08547429     0.00170
C69         C  0.13985625  0.33667122  0.06103355    -0.12000
C70         C  0.14999490  0.04110972  0.08035203     0.02660
C71         C  0.16106857  0.04274659  0.12569261    -0.11420
H72         H  0.15369081  0.27618843  0.15020317     0.08260
H73         H  0.13209916  0.33470485  0.02587262     0.05790
H74         H  0.16947780  0.07134533  0.14089347     0.05630
O75         O  0.16463015  0.23326819  0.06860979    -0.80590
O76         O  0.13198031  0.07629343  0.01481673    -0.80620
O77         O  0.10711704  0.17789304  0.06065426    -0.80630
O78         O  0.25650886  0.11709655  0.03180369    -0.80570
O79         O  0.07542296  0.13422519  0.01647808    -0.80690
O80         O  0.22802938  0.16863178  0.06761348    -0.80610
O81         O  0.17524346  0.10752700  0.05971515    -0.80590
O82         O  0.11113377  0.25655657  0.03212050    -0.80630
C83         C  0.13875941  0.26173709  0.06171926     1.09100
C84         C  0.15138909  0.07753492  0.05147349     1.08980
C85         C  0.07728006  0.15324916  0.05360468     1.09120
C86         C  0.25876871  0.14467948  0.06145319     1.09000
O87         O  0.25396915  0.19969830  0.98130948    -0.80600
O88         O  0.09971156  0.15656056  0.92505158    -0.80670
O89         O  0.14357628  0.23474874  0.94978058    -0.80610
O90         O  0.20147691  0.07707114  0.97398590    -0.80590
O91         O  0.15807735  0.09791240  0.92449707    -0.80640
O92         O  0.19857580  0.25577380  0.98275433    -0.80610
O93         O  0.23424244  0.14488894  0.94893658    -0.80560
O94         O  0.07536026  0.19886786  0.97482812    -0.80630
Co95       Co  0.20558450  0.20826594  0.02193032     1.51530
Co96       Co  0.11913769  0.11955281  0.97085587     1.51690
Co97       Co  0.12863024  0.20710311  0.00650328     1.51570
Co98       Co  0.20581524  0.12997318  0.00572701     1.51470
O99         O  0.16216351  0.16349025  0.98831838    -1.42530
C100        C  0.25713453  0.17550859  0.94914372     1.09020
C101        C  0.07245528  0.18092624  0.93731710     1.09110
C102        C  0.17348504  0.25922357  0.95149354     1.09050
C103        C  0.18294567  0.07182551  0.93718958     1.09020
C104        C  0.33585987  0.16279906  0.15458546     0.02670
C105        C  0.04056635  0.16031509  0.12980227    -0.13480
C106        C  0.03992109  0.15192971  0.08344799     0.00170
C107        C  0.33489100  0.14452479  0.06308661    -0.12000
C108        C  0.29741945  0.14993758  0.08639088     0.02660
C109        C  0.29798970  0.16144221  0.13143064    -0.11420
H110        H  0.07017642  0.16355912  0.14645370     0.08260
H111        H  0.33392666  0.13707671  0.02763804     0.05790
H112        H  0.26878671  0.16680273  0.14908354     0.05630
C113        C  0.16907751  0.32463659  0.84799290     0.02670
C114        C  0.16661443  0.29063125  0.87573820    -0.13480
C115        C  0.17685799  0.29382126  0.92120652     0.00170
C116        C  0.18708518  0.33147036  0.93951183    -0.12000
C117        C  0.18449820  0.03280995  0.91382294     0.02660
C118        C  0.17674572  0.02922619  0.86785887    -0.11420
H119        H  0.15725289  0.26171604  0.86197559     0.08260
H120        H  0.19320552  0.33406933  0.97505770     0.05790
H121        H  0.17650407  0.05607457  0.84777306     0.05630
C122        C  0.32696689  0.17227474  0.84492716     0.02670
C123        C  0.28993719  0.17289588  0.87137696    -0.13480
C124        C  0.29241318  0.17961537  0.91787700     0.00170
C125        C  0.33077603  0.18695775  0.93728475    -0.12000
C126        C  0.03405170  0.18303888  0.91242199     0.02660
C127        C  0.03239102  0.17547541  0.86628881    -0.11420
H128        H  0.25971363  0.16944134  0.85606921     0.08260
H129        H  0.33217396  0.19173942  0.97328995     0.05790
H130        H  0.06117340  0.17265148  0.84693676     0.05630
C131        C  0.30700219  0.14341644  0.72278668    -0.09610
C132        C  0.33316667  0.17165647  0.70029424     0.06580
C133        C  0.02298819  0.19988477  0.72592324    -0.03380
C134        C  0.01865094  0.20023981  0.77249921    -0.07830
C135        C  0.32653087  0.17173087  0.79514414     0.05700
C136        C  0.30394995  0.14286327  0.76982542    -0.02860
Br137      Br  0.27170378  0.09995681  0.79725404    -0.02550
H138        H  0.28952726  0.12111379  0.70371953     0.09610
H139        H  0.03655178  0.22236504  0.79139898     0.07630
Br140      Br  0.06474309  0.23603216  0.70047995    -0.02980
C141        C  0.17788035  0.29176569  0.72528695    -0.09610
C142        C  0.15561685  0.32147458  0.70386096     0.06580
C143        C  0.13616767  0.01766733  0.73057376    -0.03380
C144        C  0.13883351  0.01652626  0.77734626    -0.07830
C145        C  0.16272553  0.32123941  0.79865675     0.05700
C146        C  0.18268301  0.29206784  0.77181493    -0.02860
Br147      Br  0.22140942  0.25499828  0.79507201    -0.02550
H148        H  0.19349354  0.26915821  0.70543401     0.09610
H149        H  0.12345065  0.03934623  0.79708531     0.07630
Br150      Br  0.11012171  0.06335293  0.70571767    -0.02980
C151        C  0.19338238  0.31598437  0.22101837    -0.09610
C152        C  0.16650743  0.34294237  0.20117107     0.06580
C153        C  0.14308440  0.03522552  0.22935474    -0.03380
C154        C  0.14698197  0.03349178  0.27593618    -0.07830
C155        C  0.17301719  0.33925170  0.29564589     0.05700
C156        C  0.19631005  0.31353868  0.26773296    -0.02860
Br157      Br  0.22895051  0.27168046  0.29156734    -0.02550
H158        H  0.21115016  0.29569049  0.20009837     0.09610
H159        H  0.12826415  0.05280179  0.29709795     0.07630
Br160      Br  0.10159054  0.06999614  0.20726162    -0.02980
C161        C  0.30463380  0.14342777  0.27621672    -0.09610
C162        C  0.33246973  0.16875928  0.29938177     0.06580
C163        C  0.02912290  0.19182042  0.27473257    -0.03380
C164        C  0.02969725  0.18997246  0.22761675    -0.07830
C165        C  0.33484463  0.16455889  0.20448233     0.05700
C166        C  0.30620125  0.14022716  0.22970165    -0.02860
Br167      Br  0.27054165  0.09894599  0.20417598    -0.02550
H168        H  0.28174600  0.12516981  0.29464108     0.09550
H169        H  0.05242588  0.20826753  0.20906685     0.07630
Br170      Br  0.07178737  0.22377964  0.30340586    -0.02980
O171        O  0.27091732  0.34155563  0.57169697    -0.80590
O172        O  0.05579074  0.65436593  0.56174607    -0.80620
O173        O  0.31866874  0.59705339  0.54874512    -0.80630
O174        O  0.03768057  0.42673434  0.51740319    -0.80570
O175        O  0.04855763  0.57874038  0.52735034    -0.80690
O176        O  0.32818681  0.40084848  0.56864613    -0.80610
O177        O  0.09082093  0.36414600  0.51854216    -0.80590
O178        O  0.24373550  0.63291427  0.52512009    -0.80630
C179        C  0.24033414  0.65315651  0.56094617     1.09100
C180        C  0.08798036  0.34307577  0.55426471     1.08980
C181        C  0.01612382  0.57297377  0.55143360     1.09120
C182        C  0.02002662  0.42818720  0.55608353     1.09000
O183        O  0.29882803  0.42587113  0.48237386    -0.80600
O184        O  0.00992806  0.59741555  0.45106131    -0.80670
O185        O  0.27532187  0.65154302  0.43792954    -0.80610
O186        O  0.06208131  0.34086468  0.42762011    -0.80590
O187        O  0.08616337  0.63315769  0.47493923    -0.80640
O188        O  0.24270256  0.36234718  0.48045824    -0.80610
O189        O  0.00747208  0.40072997  0.43075399    -0.80560
O190        O  0.27944214  0.57677415  0.47210503    -0.80630
Co191      Co  0.28776853  0.38040669  0.52507145     1.51530
Co192      Co  0.03067830  0.62838565  0.50831773     1.51690
Co193      Co  0.29915932  0.62726339  0.49159509     1.51570
Co194      Co  0.04667886  0.38072945  0.47426212     1.51470
O195        O  0.33286416  0.34501802  0.49957413    -1.42530
C196        C  0.31653140  0.42753501  0.44378707     1.09020
C197        C  0.31180658  0.57241860  0.44772158     1.09110
C198        C  0.24430019  0.67333994  0.44522017     1.09050
C199        C  0.09072128  0.31829427  0.43836583     1.09020
C200        C  0.32910508  0.50236516  0.34905776     0.02670
C201        C  0.32558535  0.46557774  0.37187032    -0.13480
C202        C  0.31481344  0.46447715  0.41765817     0.00170
C203        C  0.30797468  0.50021946  0.44059958    -0.12000
C204        C  0.31446808  0.53688255  0.41938420     0.02660
C205        C  0.32463762  0.53831075  0.37346616    -0.11420
H206        H  0.33068997  0.43780797  0.35377498     0.08260
H207        H  0.30051611  0.49980336  0.47627267     0.05790
H208        H  0.32727954  0.56694515  0.35673518     0.05630
C209        C  0.17189777  0.66846162  0.34512451     0.02670
C210        C  0.20849185  0.67315110  0.37036968    -0.13480
C211        C  0.20681961  0.66762108  0.41704038     0.00170
C212        C  0.16880247  0.32118304  0.43723510    -0.12000
C213        C  0.13142801  0.65363801  0.41354174     0.02660
C214        C  0.13331530  0.66069091  0.36730522    -0.11420
H215        H  0.23789000  0.68131954  0.35382462     0.08260
H216        H  0.16816168  0.31168599  0.47156429     0.05790
H217        H  0.10479064  0.65948614  0.34840535     0.05630
C218        C  0.15750592  0.65692197  0.65396513     0.02670
C219        C  0.19622226  0.65266884  0.63132759    -0.13480
C220        C  0.19971052  0.65752147  0.58488832     0.00170
C221        C  0.16502398  0.33750090  0.56192987    -0.12000
C222        C  0.12524805  0.67173678  0.58258426     0.02660
C223        C  0.12158082  0.66353800  0.62872972    -0.11420
H224        H  0.22393669  0.64637929  0.64988169     0.08260
H225        H  0.16909672  0.34774361  0.52803652     0.05790
H226        H  0.09112896  0.66346613  0.64515550     0.05630
C227        C  0.33796035  0.50323697  0.65064692     0.02670
C228        C  0.34558240  0.46653967  0.62862591    -0.13480
C229        C  0.35471711  0.46561178  0.58229569     0.00170
C230        C  0.35760824  0.50138608  0.55876406    -0.12000
C231        C  0.34714268  0.53739463  0.57937905     0.02660
C232        C  0.33610635  0.53834570  0.62498357    -0.11420
H233        H  0.34460829  0.43887690  0.64736332     0.08260
H234        H  0.36492553  0.50097186  0.52305644     0.05790
H235        H  0.32802651  0.56648873  0.64074844     0.05630
C236        C  0.16031880  0.67430690  0.15181701     0.02670
C237        C  0.15281609  0.63679803  0.13089224    -0.13480
C238        C  0.14279830  0.63431852  0.08547374     0.00170
C239        C  0.13985624  0.67000474  0.06103297    -0.12000
C240        C  0.14999559  0.37444310  0.08035180     0.02660
C241        C  0.16106917  0.37608001  0.12569241    -0.11420
H242        H  0.15369117  0.60952215  0.15020267     0.08260
H243        H  0.13209918  0.66803830  0.02587203     0.05790
H244        H  0.16947841  0.40467875  0.14089326     0.05630
O245        O  0.16463078  0.56660187  0.06860923    -0.80590
O246        O  0.13198086  0.40962680  0.01481655    -0.80620
O247        O  0.10711772  0.51122667  0.06065386    -0.80630
O248        O  0.25650953  0.45043017  0.03180307    -0.80570
O249        O  0.07542354  0.46755866  0.01647796    -0.80690
O250        O  0.22802998  0.50196539  0.06761285    -0.80610
O251        O  0.17524426  0.44086032  0.05971473    -0.80590
O252        O  0.11113435  0.58989006  0.03211984    -0.80630
C253        C  0.13875991  0.59507066  0.06171868     1.09100
C254        C  0.15138980  0.41086827  0.05147320     1.08980
C255        C  0.07728068  0.48658282  0.05360444     1.09120
C256        C  0.25876937  0.47801315  0.06145253     1.09000
O257        O  0.25396955  0.53303174  0.98130869    -0.80600
O258        O  0.09971209  0.48989382  0.92505136    -0.80670
O259        O  0.14357676  0.56808208  0.94977991    -0.80610
O260        O  0.20147742  0.41040433  0.97398541    -0.80590
O261        O  0.15807769  0.43124564  0.92449681    -0.80640
O262        O  0.19857622  0.58910730  0.98275363    -0.80610
O263        O  0.23424282  0.47822230  0.94893591    -0.80560
O264        O  0.07536075  0.53220121  0.97482775    -0.80630
Co265      Co  0.20558502  0.54159946  0.02192968     1.51530
Co266      Co  0.11913818  0.45288614  0.97085568     1.51690
Co267      Co  0.12863081  0.54043657  0.00650274     1.51570
Co268      Co  0.20581580  0.46330650  0.00572642     1.51470
O269        O  0.16216402  0.49682363  0.98831796    -1.42530
C270        C  0.25713485  0.50884200  0.94914294     1.09020
C271        C  0.07245573  0.51425941  0.93731685     1.09110
C272        C  0.17348544  0.59255700  0.95149285     1.09050
C273        C  0.18294591  0.40515864  0.93718925     1.09020
C274        C  0.33586082  0.49613297  0.15458455     0.02670
C275        C  0.04056704  0.49364946  0.12980196    -0.13480
C276        C  0.03992172  0.48526363  0.08344778     0.00170
C277        C  0.33489160  0.47785828  0.06308580    -0.12000
C278        C  0.29742015  0.48327136  0.08639013     0.02660
C279        C  0.29799059  0.49477626  0.13142982    -0.11420
H280        H  0.07017712  0.49689358  0.14645335     0.08260
H281        H  0.33392714  0.47041002  0.02763728     0.05790
H282        H  0.26878767  0.50013696  0.14908279     0.05630
C283        C  0.16907777  0.65797006  0.84799221     0.02670
C284        C  0.16661481  0.62396470  0.87573750    -0.13480
C285        C  0.17685824  0.62715475  0.92120585     0.00170
C286        C  0.18708516  0.66480390  0.93951120    -0.12000
C287        C  0.18449794  0.36614295  0.91382272     0.02660
C288        C  0.17674461  0.36255910  0.86785882    -0.11420
H289        H  0.15725345  0.59504945  0.86197486     0.08260
H290        H  0.19320542  0.66740288  0.97505708     0.05790
H291        H  0.17650278  0.38940744  0.84777295     0.05630
C292        C  0.32696691  0.50560824  0.84492615     0.02670
C293        C  0.28993728  0.50622945  0.87137605    -0.13480
C294        C  0.29241341  0.51294879  0.91787611     0.00170
C295        C  0.33077634  0.52029097  0.93728375    -0.12000
C296        C  0.03405208  0.51637170  0.91242183     0.02660
C297        C  0.03239139  0.50880777  0.86628876    -0.11420
H298        H  0.25971366  0.50277507  0.85606839     0.08260
H299        H  0.33217437  0.52507256  0.97328895     0.05790
H300        H  0.06117376  0.50598375  0.84693674     0.05630
C301        C  0.30700181  0.47675015  0.72278572    -0.09610
C302        C  0.33316643  0.50499004  0.70029326     0.06580
C303        C  0.02298880  0.53321690  0.72592322    -0.03380
C304        C  0.01865166  0.53357180  0.77249919    -0.07830
C305        C  0.32653075  0.50506445  0.79514313     0.05700
C306        C  0.30394962  0.47619698  0.76982445    -0.02860
Br307      Br  0.27170323  0.43329067  0.79725307    -0.02550
H308        H  0.28952673  0.45444759  0.70371857     0.09610
H309        H  0.03655280  0.55569679  0.79139898     0.07630
Br310      Br  0.06474425  0.56936373  0.70047997    -0.02980
C311        C  0.17788057  0.62509896  0.72528631    -0.09610
C312        C  0.15561696  0.65480776  0.70386029     0.06580
C313        C  0.13616510  0.35100079  0.73057425    -0.03380
C314        C  0.13883109  0.34985938  0.77734677    -0.07830
C315        C  0.16272585  0.65457284  0.79865605     0.05700
C316        C  0.18268336  0.62540127  0.77181427    -0.02860
Br317      Br  0.22141001  0.58833193  0.79507134    -0.02550
H318        H  0.19349373  0.60249145  0.70543341     0.09610
H319        H  0.12344838  0.37267927  0.79708608     0.07630
Br320      Br  0.11011884  0.39668643  0.70571866    -0.02980
C321        C  0.19338237  0.64931837  0.22101785    -0.09610
C322        C  0.16650734  0.67627625  0.20117051     0.06580
C323        C  0.14308386  0.36855880  0.22935441    -0.03380
C324        C  0.14698080  0.36682489  0.27593591    -0.07830
C325        C  0.17301681  0.67258543  0.29564536     0.05700
C326        C  0.19630994  0.64687263  0.26773243    -0.02860
Br327      Br  0.22895075  0.60501463  0.29156677    -0.02550
H328        H  0.21115031  0.62902460  0.20009786     0.09610
H329        H  0.12826269  0.38613480  0.29709750     0.07630
Br330      Br  0.10159023  0.40332938  0.20726073    -0.02980
C331        C  0.30463510  0.47676129  0.27621583    -0.09610
C332        C  0.33247119  0.50209256  0.29938097     0.06580
C333        C  0.02912365  0.52515445  0.27473255    -0.03380
C334        C  0.02969803  0.52330676  0.22761668    -0.07830
C335        C  0.33484576  0.49789268  0.20448145     0.05700
C336        C  0.30620237  0.47356094  0.22970074    -0.02860
Br337      Br  0.27054246  0.43228008  0.20417497    -0.02550
H338        H  0.28174722  0.45850337  0.29464012     0.09550
H339        H  0.05242673  0.54160186  0.20906691     0.07630
Br340      Br  0.07178815  0.55711344  0.30340612    -0.02980
O341        O  0.27091703  0.67488857  0.57169621    -0.80590
O342        O  0.05579306  0.98769894  0.56174662    -0.80620
O343        O  0.31867078  0.93038684  0.54874550    -0.80630
O344        O  0.03768043  0.76006744  0.51740279    -0.80570
O345        O  0.04855988  0.91207347  0.52735053    -0.80690
O346        O  0.32818622  0.73418175  0.56864573    -0.80610
O347        O  0.09082068  0.69747912  0.51854163    -0.80590
O348        O  0.24373769  0.96624761  0.52512044    -0.80630
C349        C  0.24033641  0.98648949  0.56094677     1.09100
C350        C  0.08798013  0.67640898  0.55426425     1.08980
C351        C  0.01612587  0.90630692  0.55143351     1.09120
C352        C  0.02002658  0.76152035  0.55608319     1.09000
O353        O  0.29882747  0.75920448  0.48237351    -0.80600
O354        O  0.00993065  0.93074890  0.45106142    -0.80670
O355        O  0.27532431  0.98487672  0.43792996    -0.80610
O356        O  0.06208080  0.67419773  0.42761967    -0.80590
O357        O  0.08616581  0.96649111  0.47493983    -0.80640
O358        O  0.24270213  0.69568039  0.48045766    -0.80610
O359        O  0.00747170  0.73406304  0.43075361    -0.80560
O360        O  0.27944411  0.91010785  0.47210546    -0.80630
Co361      Co  0.28776806  0.71373989  0.52507093     1.51530
Co362      Co  0.03068072  0.96171889  0.50831810     1.51690
Co363      Co  0.29916155  0.96059692  0.49159553     1.51570
Co364      Co  0.04667852  0.71406256  0.47426169     1.51470
O365        O  0.33286373  0.67835137  0.49957345    -1.42530
C366        C  0.31653087  0.76086842  0.44378674     1.09020
C367        C  0.31180849  0.90575215  0.44772201     1.09110
C368        C  0.24430254  0.00667348  0.44522068     1.09050
C369        C  0.09072082  0.65162738  0.43836535     1.09020
C370        C  0.32910466  0.83569873  0.34905766     0.02670
C371        C  0.32558456  0.79891127  0.37187010    -0.13480
C372        C  0.31481329  0.79781071  0.41765809     0.00170
C373        C  0.30797570  0.83355307  0.44059981    -0.12000
C374        C  0.31446950  0.87021614  0.41938450     0.02660
C375        C  0.32463823  0.87164434  0.37346628    -0.11420
H376        H  0.33068844  0.77114144  0.35377459     0.08260
H377        H  0.30051762  0.83313694  0.47627301     0.05790
H378        H  0.32728029  0.90027876  0.35673537     0.05630
C379        C  0.17189991  0.00179486  0.34512505     0.02670
C380        C  0.20849411  0.00648437  0.37037007    -0.13480
C381        C  0.20682197  0.00095456  0.41704085     0.00170
C382        C  0.16880205  0.65451618  0.43723448    -0.12000
C383        C  0.13143040  0.98697150  0.41354244     0.02660
C384        C  0.13331754  0.99402424  0.36730592    -0.11420
H385        H  0.23789221  0.01465272  0.35382486     0.08260
H386        H  0.16816132  0.64501893  0.47156360     0.05790
H387        H  0.10479279  0.99281942  0.34840618     0.05630
C388        C  0.15750826  0.99025473  0.65396571     0.02670
C389        C  0.19622459  0.98600161  0.63132817    -0.13480
C390        C  0.19971281  0.99085435  0.58488893     0.00170
C391        C  0.16502374  0.67083387  0.56192916    -0.12000
C392        C  0.12525035  0.00506966  0.58258495     0.02660
C393        C  0.12158314  0.99687070  0.62873036    -0.11420
H394        H  0.22393904  0.97971208  0.64988224     0.08260
H395        H  0.16909643  0.68107659  0.52803582     0.05790
H396        H  0.09113129  0.99679882  0.64515617     0.05630
C397        C  0.33796072  0.83657009  0.65064696     0.02670
C398        C  0.34558221  0.79987270  0.62862584    -0.13480
C399        C  0.35471715  0.79894484  0.58229564     0.00170
C400        C  0.35760922  0.83471924  0.55876422    -0.12000
C401        C  0.34714411  0.87072786  0.57937929     0.02660
C402        C  0.33610734  0.87167891  0.62498368    -0.11420
H403        H  0.34460754  0.77220987  0.64736313     0.08260
H404        H  0.36492679  0.83430508  0.52305666     0.05790
H405        H  0.32802769  0.89982200  0.64074853     0.05630
C406        C  0.16031853  0.00763968  0.15181770     0.02670
C407        C  0.15281574  0.97013088  0.13089277    -0.13480
C408        C  0.14279784  0.96765153  0.08547428     0.00170
C409        C  0.13985572  0.00333786  0.06103370    -0.12000
C410        C  0.14999535  0.70777666  0.08035118     0.02660
C411        C  0.16106892  0.70941371  0.12569178    -0.11420
H412        H  0.15369092  0.94285492  0.15020306     0.08260
H413        H  0.13209861  0.00137155  0.02587277     0.05790
H414        H  0.16947806  0.73801251  0.14089256     0.05630
O415        O  0.16463039  0.89993493  0.06860942    -0.80590
O416        O  0.13198054  0.74296026  0.01481589    -0.80620
O417        O  0.10711743  0.84455986  0.06065345    -0.80630
O418        O  0.25650918  0.78376344  0.03180243    -0.80570
O419        O  0.07542321  0.80089209  0.01647731    -0.80690
O420        O  0.22802961  0.83529837  0.06761271    -0.80610
O421        O  0.17524391  0.77419381  0.05971408    -0.80590
O422        O  0.11113414  0.92322335  0.03211991    -0.80630
C423        C  0.13875954  0.92840377  0.06171895     1.09100
C424        C  0.15138947  0.74420177  0.05147255     1.08980
C425        C  0.07728038  0.81991607  0.05360390     1.09120
C426        C  0.25876898  0.81134614  0.06145220     1.09000
O427        O  0.25396929  0.86636513  0.98130882    -0.80600
O428        O  0.09971180  0.82322744  0.92505083    -0.80670
O429        O  0.14357673  0.90141565  0.94977992    -0.80610
O430        O  0.20147711  0.74373789  0.97398477    -0.80590
O431        O  0.15807740  0.76457916  0.92449616    -0.80640
O432        O  0.19857604  0.92244065  0.98275411    -0.80610
O433        O  0.23424251  0.81155601  0.94893543    -0.80560
O434        O  0.07536057  0.86553479  0.97482734    -0.80630
Co435      Co  0.20558467  0.87493265  0.02192979     1.51530
Co436      Co  0.11913787  0.78621965  0.97085507     1.51690
Co437      Co  0.12863059  0.87376996  0.00650252     1.51570
Co438      Co  0.20581551  0.79664001  0.00572586     1.51470
O439        O  0.16216372  0.83015709  0.98831755    -1.42530
C440        C  0.25713461  0.84217566  0.94914282     1.09020
C441        C  0.07245552  0.84759309  0.93731638     1.09110
C442        C  0.17348547  0.92589048  0.95149318     1.09050
C443        C  0.18294564  0.73849218  0.93718860     1.09020
C444        C  0.33586015  0.82946566  0.15458448     0.02670
C445        C  0.04056686  0.82698257  0.12980147    -0.13480
C446        C  0.03992149  0.81859674  0.08344729     0.00170
C447        C  0.33489120  0.81119100  0.06308572    -0.12000
C448        C  0.29741969  0.81660408  0.08638994     0.02660
C449        C  0.29799000  0.82810895  0.13142964    -0.11420
H450        H  0.07017696  0.83022673  0.14645280     0.08260
H451        H  0.33392684  0.80374286  0.02763717     0.05790
H452        H  0.26878704  0.83346979  0.14908246     0.05630
C453        C  0.16907923  0.99130368  0.84799273     0.02670
C454        C  0.16661587  0.95729827  0.87573788    -0.13480
C455        C  0.17685860  0.96048825  0.92120638     0.00170
C456        C  0.18708522  0.99813733  0.93951201    -0.12000
C457        C  0.18449781  0.69947648  0.91382208     0.02660
C458        C  0.17674461  0.69589260  0.86785816    -0.11420
H459        H  0.15725477  0.92838303  0.86197501     0.08260
H460        H  0.19320496  0.00073623  0.97505802     0.05790
H461        H  0.17650272  0.72274093  0.84777229     0.05630
C462        C  0.32696688  0.83894202  0.84492624     0.02670
C463        C  0.28993720  0.83956329  0.87137604    -0.13480
C464        C  0.29241323  0.84628263  0.91787610     0.00170
C465        C  0.33077611  0.85362479  0.93728387    -0.12000
C466        C  0.03405183  0.84970550  0.91242139     0.02660
C467        C  0.03239106  0.84214162  0.86628830    -0.11420
H468        H  0.25971362  0.83610889  0.85606830     0.08260
H469        H  0.33217406  0.85840629  0.97328909     0.05790
H470        H  0.06117341  0.83931762  0.84693622     0.05630
C471        C  0.30700203  0.81008349  0.72278585    -0.09610
C472        C  0.33316676  0.83832325  0.70029332     0.06580
C473        C  0.02298843  0.86655048  0.72592281    -0.03380
C474        C  0.01865113  0.86690556  0.77249875    -0.07830
C475        C  0.32653083  0.83839804  0.79514322     0.05700
C476        C  0.30394973  0.80953050  0.76982459    -0.02860
Br477      Br  0.27170320  0.76662434  0.79725333    -0.02550
H478        H  0.28952694  0.78778091  0.70371877     0.09610
H479        H  0.03655216  0.88903065  0.79139851     0.07630
Br480      Br  0.06474395  0.90269733  0.70047967    -0.02980
C481        C  0.17788305  0.95843226  0.72528712    -0.09610
C482        C  0.15561936  0.98814084  0.70386084     0.06580
C483        C  0.13616529  0.68433405  0.73057352    -0.03380
C484        C  0.13883135  0.68319275  0.77734603    -0.07830
C485        C  0.16272793  0.98790648  0.79865654     0.05700
C486        C  0.18268572  0.95873488  0.77181508    -0.02860
Br487      Br  0.22141257  0.92166596  0.79507263    -0.02550
H488        H  0.19349635  0.93582468  0.70543443     0.09610
H489        H  0.12344863  0.70601266  0.79708530     0.07630
Br490      Br  0.11011907  0.73001969  0.70571786    -0.02980
C491        C  0.19338269  0.98265094  0.22101817    -0.09610
C492        C  0.16650753  0.00960891  0.20117114     0.06580
C493        C  0.14308369  0.70189265  0.22935383    -0.03380
C494        C  0.14698043  0.70015861  0.27593536    -0.07830
C495        C  0.17301854  0.00591860  0.29564589     0.05700
C496        C  0.19631098  0.98020544  0.26773272    -0.02860
Br497      Br  0.22895171  0.93834728  0.29156680    -0.02550
H498        H  0.21115020  0.96235698  0.20009801     0.09610
H499        H  0.12826223  0.71946844  0.29709693     0.07630
Br500      Br  0.10159031  0.73666349  0.20726010    -0.02980
C501        C  0.30463400  0.81009506  0.27621588    -0.09610
C502        C  0.33247039  0.83542617  0.29938085     0.06580
C503        C  0.02912398  0.85848765  0.27473194    -0.03380
C504        C  0.02969813  0.85663993  0.22761607    -0.07830
C505        C  0.33484494  0.83122571  0.20448137     0.05700
C506        C  0.30620129  0.80689438  0.22970082    -0.02860
Br507      Br  0.27054114  0.76561353  0.20417538    -0.02550
H508        H  0.28174597  0.79183742  0.29464030     0.09550
H509        H  0.05242683  0.87493493  0.20906618     0.07630
Br510      Br  0.07178885  0.89044644  0.30340515    -0.02980
O511        O  0.60425267  0.00822202  0.57169715    -0.80590
O512        O  0.38912446  0.32103246  0.56174656    -0.80620
O513        O  0.65200244  0.26371996  0.54874572    -0.80630
O514        O  0.37101555  0.09340109  0.51740404    -0.80570
O515        O  0.38189127  0.24540695  0.52735074    -0.80690
O516        O  0.66152208  0.06751488  0.56864662    -0.80610
O517        O  0.42415614  0.03081281  0.51854256    -0.80590
O518        O  0.57706921  0.29958081  0.52512070    -0.80630
C519        C  0.57366786  0.31982298  0.56094683     1.09100
C520        C  0.42131562  0.00974237  0.55426493     1.08980
C521        C  0.34945745  0.23964036  0.55143399     1.09120
C522        C  0.35336146  0.09485381  0.55608434     1.09000
O523        O  0.63216324  0.09253788  0.48237450    -0.80600
O524        O  0.34326174  0.26408215  0.45106174    -0.80670
O525        O  0.60865559  0.31820971  0.43793016    -0.80610
O526        O  0.39541665  0.00753186  0.42762049    -0.80590
O527        O  0.41949712  0.29982425  0.47493975    -0.80640
O528        O  0.57603786  0.02901396  0.48045843    -0.80610
O529        O  0.34080719  0.06739707  0.43075468    -0.80560
O530        O  0.61277588  0.24344083  0.47210559    -0.80630
Co531      Co  0.62110383  0.04707328  0.52507181     1.51530
Co532      Co  0.36401202  0.29505225  0.50831817     1.51690
Co533      Co  0.63249303  0.29393005  0.49159571     1.51570
Co534      Co  0.38001404  0.04739642  0.47426268     1.51470
O535        O  0.66619953  0.01168483  0.49957420    -1.42530
C536        C  0.64986652  0.09420192  0.44378768     1.09020
C537        C  0.64514036  0.23908536  0.44772219     1.09110
C538        C  0.57763386  0.34000656  0.44522081     1.09050
C539        C  0.42405656  0.98496132  0.43836609     1.09020
C540        C  0.66243866  0.16903203  0.34905827     0.02670
C541        C  0.65891947  0.13224461  0.37187086    -0.13480
C542        C  0.64814803  0.13114399  0.41765881     0.00170
C543        C  0.64130914  0.16688624  0.44060027    -0.12000
C544        C  0.64780197  0.20354934  0.41938481     0.02660
C545        C  0.65797108  0.20497760  0.37346667    -0.11420
H546        H  0.66402418  0.10447488  0.35377548     0.08260
H547        H  0.63385090  0.16647010  0.47627344     0.05790
H548        H  0.66061261  0.23361199  0.35673564     0.05630
C549        C  0.50523146  0.33512847  0.34512511     0.02670
C550        C  0.54182555  0.33981791  0.37037028    -0.13480
C551        C  0.54015333  0.33428771  0.41704097     0.00170
C552        C  0.50213776  0.98785006  0.43723524    -0.12000
C553        C  0.46476176  0.32030459  0.41354229     0.02660
C554        C  0.46664903  0.32735763  0.36730580    -0.11420
H555        H  0.57122368  0.34798645  0.35382525     0.08260
H556        H  0.50149701  0.97835300  0.47156442     0.05790
H557        H  0.43812435  0.32615288  0.34840595     0.05630
C558        C  0.49083966  0.32358842  0.65396575     0.02670
C559        C  0.52955599  0.31933530  0.63132820    -0.13480
C560        C  0.53304423  0.32418792  0.58488895     0.00170
C561        C  0.49835927  0.00416745  0.56193000    -0.12000
C562        C  0.45858177  0.33840326  0.58258487     0.02660
C563        C  0.45491455  0.33020448  0.62873036    -0.11420
H564        H  0.55727043  0.31304576  0.64988229     0.08260
H565        H  0.50243204  0.01441036  0.52803673     0.05790
H566        H  0.42446270  0.33013265  0.64515615     0.05630
C567        C  0.67129379  0.16990349  0.65064747     0.02670
C568        C  0.67891641  0.13320625  0.62862654    -0.13480
C569        C  0.68805161  0.13227843  0.58229640     0.00170
C570        C  0.69094263  0.16805276  0.55876480    -0.12000
C571        C  0.68047650  0.20406122  0.57937966     0.02660
C572        C  0.66943967  0.20501218  0.62498406    -0.11420
H573        H  0.67794238  0.10554350  0.64736397     0.08260
H574        H  0.69826029  0.16763860  0.52305726     0.05790
H575        H  0.66135940  0.23315513  0.64074884     0.05630
C576        C  0.49365200  0.34097380  0.15181764     0.02670
C577        C  0.48614927  0.30346490  0.13089292    -0.13480
C578        C  0.47613151  0.30098533  0.08547442     0.00170
C579        C  0.47318956  0.33667153  0.06103357    -0.12000
C580        C  0.48332870  0.04110950  0.08035213     0.02660
C581        C  0.49440261  0.04274629  0.12569265    -0.11420
H582        H  0.48702431  0.27618905  0.15020341     0.08260
H583        H  0.46543254  0.33470503  0.02587262     0.05790
H584        H  0.50281198  0.07134500  0.14089349     0.05630
O585        O  0.49796376  0.23326853  0.06861002    -0.80590
O586        O  0.46531371  0.07629343  0.01481709    -0.80620
O587        O  0.44045040  0.17789342  0.06065453    -0.80630
O588        O  0.58984241  0.11709676  0.03180363    -0.80570
O589        O  0.40875640  0.13422537  0.01647850    -0.80690
O590        O  0.56136287  0.16863186  0.06761362    -0.80610
O591        O  0.50857716  0.10752684  0.05971531    -0.80590
O592        O  0.44446742  0.25655686  0.03212059    -0.80630
C593        C  0.47209299  0.26173741  0.06171943     1.09100
C594        C  0.48472273  0.07753479  0.05147370     1.08980
C595        C  0.41061343  0.15324950  0.05360500     1.09120
C596        C  0.59210225  0.14467964  0.06145321     1.09000
O597        O  0.58730254  0.19969824  0.98130953    -0.80600
O598        O  0.43304507  0.15656066  0.92505200    -0.80670
O599        O  0.47690991  0.23474881  0.94978069    -0.80610
O600        O  0.53481031  0.07707105  0.97398597    -0.80590
O601        O  0.49141061  0.09791241  0.92449737    -0.80640
O602        O  0.53190938  0.25577388  0.98275450    -0.80610
O603        O  0.56757557  0.14488902  0.94893652    -0.80560
O604        O  0.40869374  0.19886807  0.97482837    -0.80630
Co605      Co  0.53891800  0.20826603  0.02193052     1.51530
Co606      Co  0.45247107  0.11955288  0.97085627     1.51690
Co607      Co  0.46196375  0.20710332  0.00650348     1.51570
Co608      Co  0.53914866  0.12997314  0.00572706     1.51470
O609        O  0.49549690  0.16349032  0.98831874    -1.42530
C610        C  0.59046770  0.17550864  0.94914364     1.09020
C611        C  0.40578875  0.18092630  0.93731745     1.09110
C612        C  0.50681870  0.25922362  0.95149364     1.09050
C613        C  0.51627887  0.07182543  0.93718976     1.09020
C614        C  0.66919380  0.16279944  0.15458513     0.02670
C615        C  0.37389963  0.16031563  0.12980252    -0.13480
C616        C  0.37325442  0.15193009  0.08344828     0.00170
C617        C  0.66822450  0.14452476  0.06308638    -0.12000
C618        C  0.63075306  0.14993780  0.08639076     0.02660
C619        C  0.63132353  0.16144266  0.13143046    -0.11420
H620        H  0.40350968  0.16355979  0.14645397     0.08260
H621        H  0.66726003  0.13707655  0.02763785     0.05790
H622        H  0.60212063  0.16680335  0.14908346     0.05630
C623        C  0.50241177  0.32463651  0.84799279     0.02670
C624        C  0.49994863  0.29063118  0.87573812    -0.13480
C625        C  0.51019179  0.29382128  0.92120655     0.00170
C626        C  0.52041875  0.33147043  0.93951187    -0.12000
C627        C  0.51783110  0.03280982  0.91382311     0.02660
C628        C  0.51007815  0.02922605  0.86785912    -0.11420
H629        H  0.49058729  0.26171593  0.86197546     0.08260
H630        H  0.52653881  0.33406946  0.97505780     0.05790
H631        H  0.50983639  0.05607442  0.84777331     0.05630
C632        C  0.66029966  0.17227482  0.84492673     0.02670
C633        C  0.62327005  0.17289602  0.87137668    -0.13480
C634        C  0.62574622  0.17961543  0.91787673     0.00170
C635        C  0.66410916  0.18695766  0.93728433    -0.12000
C636        C  0.36738513  0.18303864  0.91242238     0.02660
C637        C  0.36572449  0.17547486  0.86628927    -0.11420
H638        H  0.59304642  0.16944158  0.85606904     0.08260
H639        H  0.66550722  0.19173927  0.97328953     0.05790
H640        H  0.39450689  0.17265098  0.84693725     0.05630
C641        C  0.64033502  0.14341658  0.72278619    -0.09610
C642        C  0.66649956  0.17165660  0.70029381     0.06580
C643        C  0.35632172  0.19988409  0.72592372    -0.03380
C644        C  0.35198452  0.20023902  0.77249969    -0.07830
C645        C  0.65986350  0.17173107  0.79514370     0.05700
C646        C  0.63728262  0.14286347  0.76982493    -0.02860
Br647      Br  0.60503627  0.09995710  0.79725351    -0.02550
H648        H  0.62286020  0.12111389  0.70371899     0.09610
H649        H  0.36988541  0.22236418  0.79139949     0.07630
Br650      Br  0.39807677  0.23603136  0.70048051    -0.02980
C651        C  0.51121448  0.29176543  0.72528691    -0.09610
C652        C  0.48895078  0.32147420  0.70386091     0.06580
C653        C  0.46950003  0.01766747  0.73057403    -0.03380
C654        C  0.47216567  0.01652620  0.77734656    -0.07830
C655        C  0.49605985  0.32123932  0.79865665     0.05700
C656        C  0.51601738  0.29206779  0.77181485    -0.02860
Br657      Br  0.55474420  0.25499862  0.79507193    -0.02550
H658        H  0.52682764  0.26915793  0.70543399     0.09610
H659        H  0.45678274  0.03934609  0.79708567     0.07630
Br660      Br  0.44345385  0.06335301  0.70571809    -0.02980
C661        C  0.52671586  0.31598540  0.22101836    -0.09610
C662        C  0.49984066  0.34294318  0.20117112     0.06580
C663        C  0.47641835  0.03522536  0.22935467    -0.03380
C664        C  0.48031578  0.03349168  0.27593612    -0.07830
C665        C  0.50635044  0.33925239  0.29564596     0.05700
C666        C  0.52964358  0.31353966  0.26773294    -0.02860
Br667      Br  0.56228457  0.27168175  0.29156713    -0.02550
H668        H  0.54448380  0.29569169  0.20009832     0.09610
H669        H  0.46159803  0.05280183  0.29709780     0.07630
Br670      Br  0.43492467  0.06999609  0.20726137    -0.02980
C671        C  0.63796836  0.14342804  0.27621653    -0.09610
C672        C  0.66580448  0.16875941  0.29938149     0.06580
C673        C  0.36245588  0.19182086  0.27473289    -0.03380
C674        C  0.36303031  0.18997296  0.22761706    -0.07830
C675        C  0.66817880  0.16455929  0.20448202     0.05700
C676        C  0.63953550  0.14022758  0.22970145    -0.02860
Br677      Br  0.60387557  0.09894662  0.20417590    -0.02550
H678        H  0.61508058  0.12517011  0.29464098     0.09550
H679        H  0.38575890  0.20826812  0.20906722     0.07630
Br680      Br  0.40512022  0.22378017  0.30340630    -0.02980
O681        O  0.60425074  0.34155504  0.57169691    -0.80590
O682        O  0.38912396  0.65436591  0.56174591    -0.80620
O683        O  0.65200167  0.59705352  0.54874542    -0.80630
O684        O  0.37101432  0.42673423  0.51740316    -0.80570
O685        O  0.38189116  0.57874041  0.52734989    -0.80690
O686        O  0.66151977  0.40084837  0.56864640    -0.80610
O687        O  0.42415447  0.36414570  0.51854224    -0.80590
O688        O  0.57706855  0.63291447  0.52512015    -0.80630
C689        C  0.57366723  0.65315665  0.56094627     1.09100
C690        C  0.42131387  0.34307552  0.55426482     1.08980
C691        C  0.34945728  0.57297372  0.55143302     1.09120
C692        C  0.35336031  0.42818722  0.55608348     1.09000
O693        O  0.63216078  0.42587104  0.48237425    -0.80600
O694        O  0.34326172  0.59741563  0.45106086    -0.80670
O695        O  0.60865515  0.65154310  0.43792963    -0.80610
O696        O  0.39541460  0.34086435  0.42762023    -0.80590
O697        O  0.41949681  0.63315787  0.47493916    -0.80640
O698        O  0.57603571  0.36234690  0.48045839    -0.80610
O699        O  0.34080574  0.40072985  0.43075399    -0.80560
O700        O  0.61277498  0.57677430  0.47210542    -0.80630
Co701      Co  0.62110160  0.38040644  0.52507167     1.51530
Co702      Co  0.36401172  0.62838569  0.50831744     1.51690
Co703      Co  0.63249239  0.62726349  0.49159531     1.51570
Co704      Co  0.38001242  0.38072925  0.47426218     1.51470
O705        O  0.66619736  0.34501806  0.49957416    -1.42530
C706        C  0.64986405  0.42753501  0.44378741     1.09020
C707        C  0.64513939  0.57241860  0.44772199     1.09110
C708        C  0.57763348  0.67334004  0.44522015     1.09050
C709        C  0.42405459  0.31829397  0.43836590     1.09020
C710        C  0.66243694  0.50236511  0.34905805     0.02670
C711        C  0.65891730  0.46557769  0.37187061    -0.13480
C712        C  0.64814579  0.46447713  0.41765854     0.00170
C713        C  0.64130729  0.50021945  0.44060003    -0.12000
C714        C  0.64780062  0.53688253  0.41938461     0.02660
C715        C  0.65796972  0.53831071  0.37346647    -0.11420
H716        H  0.66402179  0.43780791  0.35377524     0.08260
H717        H  0.63384900  0.49980336  0.47627319     0.05790
H718        H  0.66061156  0.56694510  0.35673548     0.05630
C719        C  0.50523108  0.66846139  0.34512441     0.02670
C720        C  0.54182520  0.67315094  0.37036954    -0.13480
C721        C  0.54015295  0.66762113  0.41704029     0.00170
C722        C  0.50213579  0.32118271  0.43723503    -0.12000
C723        C  0.46476138  0.65363807  0.41354169     0.02660
C724        C  0.46664864  0.66069077  0.36730516    -0.11420
H725        H  0.57122335  0.68131928  0.35382443     0.08260
H726        H  0.50149507  0.31168539  0.47156411     0.05790
H727        H  0.43812396  0.65948592  0.34840531     0.05630
C728        C  0.49083901  0.65692198  0.65396515     0.02670
C729        C  0.52955536  0.65266889  0.63132763    -0.13480
C730        C  0.53304363  0.65752159  0.58488840     0.00170
C731        C  0.49835745  0.33750030  0.56192978    -0.12000
C732        C  0.45858117  0.67173686  0.58258430     0.02660
C733        C  0.45491392  0.66353803  0.62872976    -0.11420
H734        H  0.55726978  0.64637932  0.64988173     0.08260
H735        H  0.50243014  0.34774298  0.52803641     0.05790
H736        H  0.42446205  0.66346615  0.64515553     0.05630
C737        C  0.67129338  0.50323702  0.65064728     0.02670
C738        C  0.67891526  0.46653970  0.62862622    -0.13480
C739        C  0.68804978  0.46561182  0.58229597     0.00170
C740        C  0.69094082  0.50138613  0.55876434    -0.12000
C741        C  0.68047543  0.53739469  0.57937940     0.02660
C742        C  0.66943930  0.53834576  0.62498396    -0.11420
H743        H  0.67794126  0.43887693  0.64736363     0.08260
H744        H  0.69825803  0.50097192  0.52305670     0.05790
H745        H  0.66135959  0.56648881  0.64074889     0.05630
C746        C  0.49365151  0.67430645  0.15181699     0.02670
C747        C  0.48614877  0.63679764  0.13089211    -0.13480
C748        C  0.47613112  0.63431825  0.08547358     0.00170
C749        C  0.47318921  0.67000452  0.06103288    -0.12000
C750        C  0.48332870  0.37444348  0.08035170     0.02660
C751        C  0.49440215  0.37608059  0.12569235    -0.11420
H752        H  0.48702378  0.60952171  0.15020247     0.08260
H753        H  0.46543229  0.66803815  0.02587190     0.05790
H754        H  0.50281126  0.40467941  0.14089310     0.05630
O755        O  0.49796375  0.56660171  0.06860898    -0.80590
O756        O  0.46531415  0.40962690  0.01481621    -0.80620
O757        O  0.44045100  0.51122656  0.06065332    -0.80630
O758        O  0.58984269  0.45043019  0.03180296    -0.80570
O759        O  0.40875678  0.46755866  0.01647737    -0.80690
O760        O  0.56136313  0.50196540  0.06761273    -0.80610
O761        O  0.50857733  0.44086062  0.05971445    -0.80590
O762        O  0.44446747  0.58988994  0.03211937    -0.80630
C763        C  0.47209287  0.59507048  0.06171838     1.09100
C764        C  0.48472294  0.41086853  0.05147295     1.08980
C765        C  0.41061396  0.48658274  0.05360390     1.09120
C766        C  0.59210248  0.47801311  0.06145247     1.09000
O767        O  0.58730280  0.53303188  0.98130872    -0.80600
O768        O  0.43304535  0.48989373  0.92505077    -0.80670
O769        O  0.47691011  0.56808206  0.94977950    -0.80610
O770        O  0.53481076  0.41040449  0.97398528    -0.80590
O771        O  0.49141113  0.43124559  0.92449647    -0.80640
O772        O  0.53190939  0.58910731  0.98275354    -0.80610
O773        O  0.56757628  0.47822244  0.94893581    -0.80560
O774        O  0.40869408  0.53220116  0.97482715    -0.80630
Co775      Co  0.53891814  0.54159945  0.02192953     1.51530
Co776      Co  0.45247148  0.45288613  0.97085520     1.51690
Co777      Co  0.46196408  0.54043653  0.00650225     1.51570
Co778      Co  0.53914908  0.46330668  0.00572621     1.51470
O779        O  0.49549731  0.49682365  0.98831750    -1.42530
C780        C  0.59046827  0.50884217  0.94914298     1.09020
C781        C  0.40578905  0.51425940  0.93731624     1.09110
C782        C  0.50681875  0.59255701  0.95149263     1.09050
C783        C  0.51627939  0.40515869  0.93718907     1.09020
C784        C  0.66919351  0.49613253  0.15458491     0.02670
C785        C  0.37390049  0.49364926  0.12980150    -0.13480
C786        C  0.37325508  0.48526350  0.08344731     0.00170
C787        C  0.66822472  0.47785821  0.06308606    -0.12000
C788        C  0.63075317  0.48327117  0.08639025     0.02660
C789        C  0.63132339  0.49477586  0.13143000    -0.11420
H790        H  0.40351060  0.49689334  0.14645283     0.08260
H791        H  0.66726041  0.47041011  0.02763750     0.05790
H792        H  0.60212039  0.50013650  0.14908283     0.05630
C793        C  0.50241126  0.65797017  0.84799212     0.02670
C794        C  0.49994826  0.62396478  0.87573735    -0.13480
C795        C  0.51019165  0.62715476  0.92120569     0.00170
C796        C  0.52041858  0.66480387  0.93951112    -0.12000
C797        C  0.51783165  0.36614297  0.91382265     0.02660
C798        C  0.51007867  0.36255905  0.86785871    -0.11420
H799        H  0.49058687  0.59504956  0.86197465     0.08260
H800        H  0.52653878  0.66740280  0.97505702     0.05790
H801        H  0.50983691  0.38940736  0.84777279     0.05630
C802        C  0.66030066  0.50560849  0.84492653     0.02670
C803        C  0.62327096  0.50622968  0.87137629    -0.13480
C804        C  0.62574693  0.51294905  0.91787633     0.00170
C805        C  0.66410977  0.52029130  0.93728414    -0.12000
C806        C  0.36738537  0.51637180  0.91242126     0.02660
C807        C  0.36572459  0.50880815  0.86628814    -0.11420
H808        H  0.59304740  0.50277524  0.85606852     0.08260
H809        H  0.66550767  0.52507287  0.97328935     0.05790
H810        H  0.39450692  0.50598421  0.84693602     0.05630
C811        C  0.64033533  0.47675016  0.72278626    -0.09610
C812        C  0.66649978  0.50499009  0.70029365     0.06580
C813        C  0.35632163  0.53321757  0.72592269    -0.03380
C814        C  0.35198449  0.53357250  0.77249866    -0.07830
C815        C  0.65986457  0.50506452  0.79514354     0.05700
C816        C  0.63728339  0.47619699  0.76982499    -0.02860
Br817      Br  0.60503727  0.43329060  0.79725381    -0.02550
H818        H  0.62286018  0.45444758  0.70371923     0.09610
H819        H  0.36988552  0.55569757  0.79139844     0.07630
Br820      Br  0.39807684  0.56936464  0.70047940    -0.02980
C821        C  0.51121372  0.62509895  0.72528628    -0.09610
C822        C  0.48895010  0.65480777  0.70386029     0.06580
C823        C  0.46949917  0.35100051  0.73057417    -0.03380
C824        C  0.47216529  0.34985921  0.77734667    -0.07830
C825        C  0.49605931  0.65457299  0.79865598     0.05700
C826        C  0.51601669  0.62540136  0.77181419    -0.02860
Br827      Br  0.55474346  0.58833208  0.79507117    -0.02550
H828        H  0.52682678  0.60249139  0.70543336     0.09610
H829        H  0.45678259  0.37267911  0.79708597     0.07630
Br830      Br  0.44345299  0.39668618  0.70571855    -0.02980
C831        C  0.52671511  0.64931777  0.22101774    -0.09610
C832        C  0.49984007  0.67627569  0.20117047     0.06580
C833        C  0.47641700  0.36855950  0.22935452    -0.03380
C834        C  0.48031389  0.36682548  0.27593604    -0.07830
C835        C  0.50634998  0.67258509  0.29564527     0.05700
C836        C  0.52964287  0.64687212  0.26773231    -0.02860
Br837      Br  0.56228352  0.60501401  0.29156664    -0.02550
H838        H  0.54448293  0.62902393  0.20009772     0.09610
H839        H  0.46159567  0.38613524  0.29709767     0.07630
Br840      Br  0.43492341  0.40333016  0.20726090    -0.02980
C841        C  0.63796711  0.47676115  0.27621607    -0.09610
C842        C  0.66580309  0.50209249  0.29938127     0.06580
C843        C  0.36245740  0.52515413  0.27473212    -0.03380
C844        C  0.36303167  0.52330647  0.22761625    -0.07830
C845        C  0.66817818  0.49789230  0.20448180     0.05700
C846        C  0.63953464  0.47356065  0.22970100    -0.02860
Br847      Br  0.60387486  0.43227971  0.20417515    -0.02550
H848        H  0.61507915  0.45850327  0.29464032     0.09550
H849        H  0.38576031  0.54160160  0.20906644     0.07630
Br850      Br  0.40512194  0.55711314  0.30340558    -0.02980
O851        O  0.60425012  0.67488866  0.57169634    -0.80590
O852        O  0.38912630  0.98769913  0.56174652    -0.80620
O853        O  0.65200424  0.93038705  0.54874593    -0.80630
O854        O  0.37101372  0.76006753  0.51740275    -0.80570
O855        O  0.38189318  0.91207362  0.52735045    -0.80690
O856        O  0.66151928  0.73418185  0.56864589    -0.80610
O857        O  0.42415394  0.69747923  0.51854164    -0.80590
O858        O  0.57707104  0.96624799  0.52512086    -0.80630
C859        C  0.57366971  0.98649008  0.56094705     1.09100
C860        C  0.42131331  0.67640905  0.55426423     1.08980
C861        C  0.34945917  0.90630703  0.55143342     1.09120
C862        C  0.35335986  0.76152042  0.55608315     1.09000
O863        O  0.63216058  0.75920454  0.48237369    -0.80600
O864        O  0.34326384  0.93074896  0.45106137    -0.80670
O865        O  0.60865760  0.98487665  0.43793026    -0.80610
O866        O  0.39541424  0.67419791  0.42761959    -0.80590
O867        O  0.41949901  0.96649135  0.47493977    -0.80640
O868        O  0.57603533  0.69568047  0.48045767    -0.80610
O869        O  0.34080509  0.73406321  0.43075354    -0.80560
O870        O  0.61277736  0.91010790  0.47210603    -0.80630
Co871      Co  0.62110116  0.71373996  0.52507106     1.51530
Co872      Co  0.36401393  0.96171901  0.50831802     1.51690
Co873      Co  0.63249490  0.96059701  0.49159591     1.51570
Co874      Co  0.38001189  0.71406270  0.47426162     1.51470
O875        O  0.66619685  0.67835142  0.49957366    -1.42530
C876        C  0.64986394  0.76086848  0.44378691     1.09020
C877        C  0.64514158  0.90575217  0.44772233     1.09110
C878        C  0.57763593  0.00667359  0.44522085     1.09050
C879        C  0.42405424  0.65162754  0.43836529     1.09020
C880        C  0.66243753  0.83569882  0.34905786     0.02670
C881        C  0.65891749  0.79891135  0.37187028    -0.13480
C882        C  0.64814626  0.79781075  0.41765827     0.00170
C883        C  0.64130862  0.83355309  0.44060002    -0.12000
C884        C  0.64780238  0.87021618  0.41938475     0.02660
C885        C  0.65797107  0.87164441  0.37346652    -0.11420
H886        H  0.66402142  0.77114154  0.35377475     0.08260
H887        H  0.63385058  0.83313694  0.47627323     0.05790
H888        H  0.66061314  0.90027885  0.35673564     0.05630
C889        C  0.50523339  0.00179480  0.34512515     0.02670
C890        C  0.54182757  0.00648431  0.37037021    -0.13480
C891        C  0.54015534  0.00095471  0.41704102     0.00170
C892        C  0.50213540  0.65451633  0.43723444    -0.12000
C893        C  0.46476372  0.98697181  0.41354252     0.02660
C894        C  0.46665096  0.99402438  0.36730598    -0.11420
H895        H  0.57122572  0.01465248  0.35382500     0.08260
H896        H  0.50149465  0.64501924  0.47156362     0.05790
H897        H  0.43812625  0.99281954  0.34840617     0.05630
C898        C  0.49084122  0.99025533  0.65396587     0.02670
C899        C  0.52955767  0.98600231  0.63132847    -0.13480
C900        C  0.53304605  0.99085504  0.58488920     0.00170
C901        C  0.49835687  0.67083401  0.56192924    -0.12000
C902        C  0.45858351  0.00507014  0.58258497     0.02660
C903        C  0.45491618  0.99687121  0.62873036    -0.11420
H904        H  0.55727204  0.97971277  0.64988266     0.08260
H905        H  0.50242958  0.68107677  0.52803590     0.05790
H906        H  0.42446427  0.99679920  0.64515603     0.05630
C907        C  0.67129432  0.83657007  0.65064727     0.02670
C908        C  0.67891562  0.79987270  0.62862604    -0.13480
C909        C  0.68805037  0.79894488  0.58229582     0.00170
C910        C  0.69094238  0.83471929  0.55876444    -0.12000
C911        C  0.68047750  0.87072794  0.57937961     0.02660
C912        C  0.66944100  0.87167896  0.62498409    -0.11420
H913        H  0.67794095  0.77220983  0.64736328     0.08260
H914        H  0.69825976  0.83430514  0.52305684     0.05790
H915        H  0.66136156  0.89982206  0.64074905     0.05630
C916        C  0.49365251  0.00763938  0.15181773     0.02670
C917        C  0.48614952  0.97013061  0.13089283    -0.13480
C918        C  0.47613144  0.96765130  0.08547439     0.00170
C919        C  0.47318934  0.00333766  0.06103382    -0.12000
C920        C  0.48332832  0.70777638  0.08035121     0.02660
C921        C  0.49440174  0.70941332  0.12569186    -0.11420
H922        H  0.48702462  0.94285465  0.15020312     0.08260
H923        H  0.46543206  0.00137138  0.02587294     0.05790
H924        H  0.50281087  0.73801208  0.14089274     0.05630
O925        O  0.49796368  0.89993461  0.06860955    -0.80590
O926        O  0.46531383  0.74296005  0.01481589    -0.80620
O927        O  0.44045062  0.84455943  0.06065372    -0.80630
O928        O  0.58984245  0.78376313  0.03180280    -0.80570
O929        O  0.40875647  0.80089177  0.01647738    -0.80690
O930        O  0.56136287  0.83529816  0.06761284    -0.80610
O931        O  0.50857706  0.77419354  0.05971429    -0.80590
O932        O  0.44446728  0.92322304  0.03212035    -0.80630
C933        C  0.47209288  0.92840350  0.06171916     1.09100
C934        C  0.48472261  0.74420152  0.05147264     1.08980
C935        C  0.41061359  0.81991564  0.05360406     1.09120
C936        C  0.59210227  0.81134596  0.06145242     1.09000
O937        O  0.58730262  0.86636495  0.98130895    -0.80600
O938        O  0.43304509  0.82322734  0.92505097    -0.80670
O939        O  0.47690978  0.90141549  0.94978033    -0.80610
O940        O  0.53481040  0.74373771  0.97398495    -0.80590
O941        O  0.49141081  0.76457911  0.92449625    -0.80640
O942        O  0.53190927  0.92244047  0.98275420    -0.80610
O943        O  0.56757595  0.81155569  0.94893579    -0.80560
O944        O  0.40869378  0.86553452  0.97482764    -0.80630
Co945      Co  0.53891800  0.87493247  0.02192991     1.51530
Co946      Co  0.45247119  0.78621948  0.97085514     1.51690
Co947      Co  0.46196376  0.87376967  0.00650287     1.51570
Co948      Co  0.53914879  0.79663975  0.00572616     1.51470
O949        O  0.49549702  0.83015689  0.98831775    -1.42530
C950        C  0.59046803  0.84217535  0.94914309     1.09020
C951        C  0.40578880  0.84759296  0.93731658     1.09110
C952        C  0.50681851  0.92589033  0.95149344     1.09050
C953        C  0.51627904  0.73849212  0.93718869     1.09020
C954        C  0.66919337  0.82946586  0.15458468     0.02670
C955        C  0.37389989  0.82698191  0.12980157    -0.13480
C956        C  0.37325463  0.81859621  0.08344736     0.00170
C957        C  0.66822455  0.81119120  0.06308590    -0.12000
C958        C  0.63075299  0.81660409  0.08639012     0.02660
C959        C  0.63132324  0.82810897  0.13142980    -0.11420
H960        H  0.40350996  0.83022601  0.14645299     0.08260
H961        H  0.66726023  0.80374301  0.02763736     0.05790
H962        H  0.60212024  0.83346967  0.14908262     0.05630
C963        C  0.50241142  0.99130354  0.84799304     0.02670
C964        C  0.49994821  0.95729815  0.87573824    -0.13480
C965        C  0.51019143  0.96048812  0.92120663     0.00170
C966        C  0.52041831  0.99813719  0.93951214    -0.12000
C967        C  0.51783127  0.69947649  0.91382207     0.02660
C968        C  0.51007813  0.69589268  0.86785813    -0.11420
H969        H  0.49058689  0.92838294  0.86197549     0.08260
H970        H  0.52653841  0.00073608  0.97505807     0.05790
H971        H  0.50983625  0.72274105  0.84777231     0.05630
C972        C  0.66030042  0.83894157  0.84492657     0.02670
C973        C  0.62327071  0.83956277  0.87137635    -0.13480
C974        C  0.62574668  0.84628226  0.91787639     0.00170
C975        C  0.66410953  0.85362464  0.93728416    -0.12000
C976        C  0.36738519  0.84970558  0.91242148     0.02660
C977        C  0.36572450  0.84214193  0.86628834    -0.11420
H978        H  0.59304715  0.83610825  0.85606859     0.08260
H979        H  0.66550746  0.85840629  0.97328936     0.05790
H980        H  0.39450688  0.83931793  0.84693630     0.05630
C981        C  0.64033561  0.81008331  0.72278608    -0.09610
C982        C  0.66650043  0.83832306  0.70029365     0.06580
C983        C  0.35632195  0.86655084  0.72592273    -0.03380
C984        C  0.35198466  0.86690597  0.77249869    -0.07830
C985        C  0.65986445  0.83839763  0.79514354     0.05700
C986        C  0.63728331  0.80953019  0.76982482    -0.02860
Br987      Br  0.60503677  0.76662396  0.79725341    -0.02550
H988        H  0.62286044  0.78778084  0.70371893     0.09610
H989        H  0.36988567  0.88903109  0.79139843     0.07630
Br990      Br  0.39807734  0.90269779  0.70047954    -0.02980
C991        C  0.51121548  0.95843246  0.72528727    -0.09610
C992        C  0.48895201  0.98814121  0.70386101     0.06580
C993        C  0.46949861  0.68433416  0.73057352    -0.03380
C994        C  0.47216480  0.68319292  0.77734601    -0.07830
C995        C  0.49606000  0.98790632  0.79865683     0.05700
C996        C  0.51601778  0.95873475  0.77181529    -0.02860
Br997      Br  0.55474407  0.92166530  0.79507284    -0.02550
H998        H  0.52682885  0.93582497  0.70543453     0.09610
H999        H  0.45678218  0.70601289  0.79708530     0.07630
Br1000     Br  0.44345250  0.73001985  0.70571783    -0.02980
C1001       C  0.52671631  0.98265046  0.22101837    -0.09610
C1002       C  0.49984141  0.00960860  0.20117119     0.06580
C1003       C  0.47641651  0.70189211  0.22935383    -0.03380
C1004       C  0.48031351  0.70015823  0.27593532    -0.07830
C1005       C  0.50635211  0.00591838  0.29564598     0.05700
C1006       C  0.52964443  0.98020500  0.26773295    -0.02860
Br1007     Br  0.56228471  0.93834661  0.29156728    -0.02550
H1008       H  0.54448373  0.96235635  0.20009831     0.09610
H1009       H  0.46159540  0.71946812  0.29709693     0.07630
Br1010     Br  0.43492285  0.73666269  0.20726021    -0.02980
C1011       C  0.63796708  0.81009511  0.27621601    -0.09610
C1012       C  0.66580333  0.83542630  0.29938106     0.06580
C1013       C  0.36245676  0.85848740  0.27473183    -0.03380
C1014       C  0.36303100  0.85663948  0.22761599    -0.07830
C1015       C  0.66817810  0.83122586  0.20448157     0.05700
C1016       C  0.63953449  0.80689442  0.22970095    -0.02860
Br1017     Br  0.60387458  0.76561341  0.20417545    -0.02550
H1018       H  0.61507907  0.79183740  0.29464038     0.09550
H1019       H  0.38575978  0.87493435  0.20906606     0.07630
Br1020     Br  0.40512165  0.89044619  0.30340497    -0.02980
O1021       O  0.93758619  0.00822150  0.57169700    -0.80590
O1022       O  0.72245771  0.32103272  0.56174661    -0.80620
O1023       O  0.98533568  0.26372002  0.54874566    -0.80630
O1024       O  0.70434951  0.09340104  0.51740386    -0.80570
O1025       O  0.71522494  0.24540718  0.52735061    -0.80690
O1026       O  0.99485528  0.06751479  0.56864684    -0.80610
O1027       O  0.75748984  0.03081250  0.51854245    -0.80590
O1028       O  0.91040239  0.29958102  0.52512067    -0.80630
C1029       C  0.90700106  0.31982327  0.56094675     1.09100
C1030       C  0.75464926  0.00974209  0.55426485     1.08980
C1031       C  0.68279103  0.23964036  0.55143365     1.09120
C1032       C  0.68669537  0.09485385  0.55608413     1.09000
O1033       O  0.96549637  0.09253776  0.48237479    -0.80600
O1034       O  0.67659550  0.26408238  0.45106158    -0.80670
O1035       O  0.94198884  0.31820970  0.43793004    -0.80610
O1036       O  0.72875019  0.00753162  0.42762036    -0.80590
O1037       O  0.75283049  0.29982471  0.47493989    -0.80640
O1038       O  0.90937125  0.02901373  0.48045845    -0.80610
O1039       O  0.67414110  0.06739700  0.43075448    -0.80560
O1040       O  0.94610892  0.24344088  0.47210566    -0.80630
Co1041     Co  0.95443713  0.04707305  0.52507194     1.51530
Co1042     Co  0.69734544  0.29505244  0.50831818     1.51690
Co1043     Co  0.96582623  0.29393008  0.49159565     1.51570
Co1044     Co  0.71334779  0.04739625  0.47426257     1.51470
O1045       O  0.99953285  0.01168472  0.49957427    -1.42530
C1046       C  0.98319956  0.09420183  0.44378794     1.09020
C1047       C  0.97847332  0.23908529  0.44772217     1.09110
C1048       C  0.91096717  0.34000662  0.44522063     1.09050
C1049       C  0.75739007  0.98496104  0.43836590     1.09020
C1050       C  0.99577086  0.16903172  0.34905829     0.02670
C1051       C  0.99225184  0.13224435  0.37187099    -0.13480
C1052       C  0.98148079  0.13114384  0.41765902     0.00170
C1053       C  0.97464206  0.16688613  0.44060047    -0.12000
C1054       C  0.98113472  0.20354920  0.41938486     0.02660
C1055       C  0.99130343  0.20497734  0.37346663    -0.11420
H1056       H  0.99735646  0.10447458  0.35377565     0.08260
H1057       H  0.96718409  0.16647007  0.47627369     0.05790
H1058       H  0.99394486  0.23361170  0.35673551     0.05630
C1059       C  0.83856459  0.33512808  0.34512503     0.02670
C1060       C  0.87515877  0.33981755  0.37037008    -0.13480
C1061       C  0.87348660  0.33428774  0.41704083     0.00170
C1062       C  0.83547129  0.98784979  0.43723502    -0.12000
C1063       C  0.79809499  0.32030485  0.41354238     0.02660
C1064       C  0.79998218  0.32735756  0.36730586    -0.11420
H1065       H  0.90455690  0.34798584  0.35382489     0.08260
H1066       H  0.83483054  0.97835260  0.47156416     0.05790
H1067       H  0.77145746  0.32615276  0.34840608     0.05630
C1068       C  0.82417284  0.32358898  0.65396574     0.02670
C1069       C  0.86288918  0.31933578  0.63132820    -0.13480
C1070       C  0.86637744  0.32418833  0.58488891     0.00170
C1071       C  0.83169287  0.00416695  0.56192979    -0.12000
C1072       C  0.79191497  0.33840372  0.58258487     0.02660
C1073       C  0.78824775  0.33020499  0.62873034    -0.11420
H1074       H  0.89060360  0.31304623  0.64988230     0.08260
H1075       H  0.83576560  0.01440991  0.52803652     0.05790
H1076       H  0.75779589  0.33013315  0.64515612     0.05630
C1077       C  0.00462738  0.16990371  0.65064751     0.02670
C1078       C  0.01224981  0.13320640  0.62862666    -0.13480
C1079       C  0.02138477  0.13227844  0.58229648     0.00170
C1080       C  0.02427569  0.16805273  0.55876476    -0.12000
C1081       C  0.01380971  0.20406125  0.57937958     0.02660
C1082       C  0.00277316  0.20501234  0.62498403    -0.11420
H1083       H  0.01127585  0.10554369  0.64736418     0.08260
H1084       H  0.03159321  0.16763849  0.52305719     0.05790
H1085       H  0.99469301  0.23315534  0.64074876     0.05630
C1086       C  0.82698468  0.34097306  0.15181763     0.02670
C1087       C  0.81948183  0.30346428  0.13089271    -0.13480
C1088       C  0.80946423  0.30098496  0.08547416     0.00170
C1089       C  0.80652250  0.33667127  0.06103348    -0.12000
C1090       C  0.81666231  0.04110995  0.08035187     0.02660
C1091       C  0.82773641  0.04274691  0.12569232    -0.11420
H1092       H  0.82035670  0.27618834  0.15020306     0.08260
H1093       H  0.79876561  0.33470496  0.02587249     0.05790
H1094       H  0.83614579  0.07134569  0.14089302     0.05630
O1095       O  0.83129666  0.23326833  0.06860954    -0.80590
O1096       O  0.79864725  0.07629350  0.01481660    -0.80620
O1097       O  0.77378387  0.17789319  0.06065384    -0.80630
O1098       O  0.92317568  0.11709698  0.03180305    -0.80570
O1099       O  0.74208972  0.13422520  0.01647791    -0.80690
O1100       O  0.89469616  0.16863203  0.06761317    -0.80610
O1101       O  0.84191047  0.10752728  0.05971475    -0.80590
O1102       O  0.77780037  0.25655664  0.03212002    -0.80630
C1103       C  0.80542584  0.26173716  0.06171897     1.09100
C1104       C  0.81805620  0.07753510  0.05147325     1.08980
C1105       C  0.74394687  0.15324930  0.05360442     1.09120
C1106       C  0.92543547  0.14467970  0.06145279     1.09000
O1107       O  0.92063572  0.19969864  0.98130917    -0.80600
O1108       O  0.76637814  0.15656037  0.92505131    -0.80670
O1109       O  0.81024292  0.23474882  0.94978009    -0.80610
O1110       O  0.86814382  0.07707136  0.97398553    -0.80590
O1111       O  0.82474401  0.09791232  0.92449681    -0.80640
O1112       O  0.86524224  0.25577399  0.98275414    -0.80610
O1113       O  0.90090904  0.14488940  0.94893601    -0.80560
O1114       O  0.74202691  0.19886781  0.97482772    -0.80630
Co1115     Co  0.87225105  0.20826611  0.02193004     1.51530
Co1116     Co  0.78580441  0.11955277  0.97085567     1.51690
Co1117     Co  0.79529692  0.20710322  0.00650280     1.51570
Co1118     Co  0.87248203  0.12997349  0.00572649     1.51470
O1119       O  0.82883016  0.16349037  0.98831798    -1.42530
C1120       C  0.92380109  0.17550908  0.94914327     1.09020
C1121       C  0.73912185  0.18092604  0.93731681     1.09110
C1122       C  0.84015160  0.25922373  0.95149324     1.09050
C1123       C  0.84961246  0.07182555  0.93718932     1.09020
C1124       C  0.00252661  0.16279860  0.15458523     0.02670
C1125       C  0.70723344  0.16031575  0.12980204    -0.13480
C1126       C  0.70658800  0.15193000  0.08344786     0.00170
C1127       C  0.00155766  0.14452467  0.06308630    -0.12000
C1128       C  0.96408614  0.14993752  0.08639060     0.02660
C1129       C  0.96465643  0.16144194  0.13143043    -0.11420
H1130       H  0.73684357  0.16355987  0.14645334     0.08260
H1131       H  0.00059330  0.13707676  0.02763769     0.05790
H1132       H  0.93545346  0.16680252  0.14908334     0.05630
C1133       C  0.83574444  0.32463700  0.84799280     0.02670
C1134       C  0.83328121  0.29063159  0.87573800    -0.13480
C1135       C  0.84352459  0.29382150  0.92120635     0.00170
C1136       C  0.85375175  0.33147055  0.93951181    -0.12000
C1137       C  0.85116502  0.03280992  0.91382282     0.02660
C1138       C  0.84341259  0.02922604  0.86785876    -0.11420
H1139       H  0.82391973  0.26171641  0.86197526     0.08260
H1140       H  0.85987197  0.33406943  0.97505771     0.05790
H1141       H  0.84317097  0.05607438  0.84777288     0.05630
C1142       C  0.99363339  0.17227556  0.84492671     0.02670
C1143       C  0.95660371  0.17289677  0.87137651    -0.13480
C1144       C  0.95907973  0.17961599  0.91787658     0.00170
C1145       C  0.99744260  0.18695806  0.93728438    -0.12000
C1146       C  0.70071817  0.18303845  0.91242182     0.02660
C1147       C  0.69905735  0.17547476  0.86628870    -0.11420
H1148       H  0.92638013  0.16944241  0.85606874     0.08260
H1149       H  0.99884054  0.19173951  0.97328960     0.05790
H1150       H  0.72783967  0.17265083  0.84693656     0.05630
C1151       C  0.97366878  0.14341700  0.72278634    -0.09610
C1152       C  0.99983329  0.17165696  0.70029384     0.06580
C1153       C  0.68965441  0.19988433  0.72592333    -0.03380
C1154       C  0.68531710  0.20023927  0.77249929    -0.07830
C1155       C  0.99319733  0.17173169  0.79514371     0.05700
C1156       C  0.97061643  0.14286402  0.76982506    -0.02860
Br1157     Br  0.93837010  0.09995772  0.79725378    -0.02550
H1158       H  0.95619391  0.12111428  0.70371923     0.09610
H1159       H  0.70321792  0.22236446  0.79139914     0.07630
Br1160     Br  0.73140940  0.23603173  0.70048022    -0.02980
C1161       C  0.84454744  0.29176600  0.72528694    -0.09610
C1162       C  0.82228387  0.32147481  0.70386089     0.06580
C1163       C  0.80283455  0.01766726  0.73057373    -0.03380
C1164       C  0.80550037  0.01652613  0.77734623    -0.07830
C1165       C  0.82939264  0.32123987  0.79865664     0.05700
C1166       C  0.84935016  0.29206830  0.77181490    -0.02860
Br1167     Br  0.88807673  0.25499892  0.79507206    -0.02550
H1168       H  0.86016061  0.26915847  0.70543406     0.09610
H1169       H  0.79011756  0.03934611  0.79708530     0.07630
Br1170     Br  0.77678880  0.06335299  0.70571768    -0.02980
C1171       C  0.86004823  0.31598423  0.22101835    -0.09610
C1172       C  0.83317325  0.34294223  0.20117111     0.06580
C1173       C  0.80975230  0.03522599  0.22935452    -0.03380
C1174       C  0.81364950  0.03349205  0.27593600    -0.07830
C1175       C  0.83968337  0.33925173  0.29564589     0.05700
C1176       C  0.86297607  0.31353862  0.26773292    -0.02860
Br1177     Br  0.89561655  0.27168038  0.29156725    -0.02550
H1178       H  0.87781594  0.29569031  0.20009832     0.09610
H1179       H  0.79493155  0.05280199  0.29709771     0.07630
Br1180     Br  0.76825877  0.06999688  0.20726124    -0.02980
C1181       C  0.97130066  0.14342751  0.27621657    -0.09610
C1182       C  0.99913670  0.16875897  0.29938154     0.06580
C1183       C  0.69579056  0.19182098  0.27473250    -0.03380
C1184       C  0.69636472  0.18997320  0.22761664    -0.07830
C1185       C  0.00151144  0.16455847  0.20448210     0.05700
C1186       C  0.97286800  0.14022686  0.22970150    -0.02860
Br1187     Br  0.93720816  0.09894584  0.20417592    -0.02550
H1188       H  0.94841283  0.12516964  0.29464102     0.09550
H1189       H  0.71909328  0.20826832  0.20906671     0.07630
Br1190     Br  0.73845511  0.22378014  0.30340576    -0.02980
O1191       O  0.93758400  0.34155527  0.57169677    -0.80590
O1192       O  0.72245712  0.65436599  0.56174613    -0.80620
O1193       O  0.98533532  0.59705350  0.54874576    -0.80630
O1194       O  0.70434707  0.42673439  0.51740340    -0.80570
O1195       O  0.71522409  0.57874043  0.52735033    -0.80690
O1196       O  0.99485321  0.40084837  0.56864615    -0.80610
O1197       O  0.75748755  0.36414615  0.51854234    -0.80590
O1198       O  0.91040194  0.63291440  0.52512066    -0.80630
C1199       C  0.90700055  0.65315677  0.56094666     1.09100
C1200       C  0.75464703  0.34307590  0.55426488     1.08980
C1201       C  0.68279016  0.57297381  0.55143340     1.09120
C1202       C  0.68669311  0.42818725  0.55608374     1.09000
O1203       O  0.96549432  0.42587106  0.48237395    -0.80600
O1204       O  0.67659467  0.59741549  0.45106125    -0.80670
O1205       O  0.94198826  0.65154283  0.43793002    -0.80610
O1206       O  0.72874789  0.34086476  0.42762033    -0.80590
O1207       O  0.75282984  0.63315781  0.47493940    -0.80640
O1208       O  0.90936907  0.36234703  0.48045815    -0.80610
O1209       O  0.67413855  0.40073001  0.43075424    -0.80560
O1210       O  0.94610855  0.57677408  0.47210582    -0.80630
Co1211     Co  0.95443500  0.38040653  0.52507142     1.51530
Co1212     Co  0.69734476  0.62838570  0.50831774     1.51690
Co1213     Co  0.96582578  0.62726336  0.49159567     1.51570
Co1214     Co  0.71334542  0.38072954  0.47426233     1.51470
O1215       O  0.99953070  0.34501804  0.49957395    -1.42530
C1216       C  0.98319765  0.42753503  0.44378715     1.09020
C1217       C  0.97847288  0.57241855  0.44772218     1.09110
C1218       C  0.91096667  0.67333989  0.44522053     1.09050
C1219       C  0.75738789  0.31829439  0.43836603     1.09020
C1220       C  0.99577124  0.50236540  0.34905811     0.02670
C1221       C  0.99225151  0.46557792  0.37187054    -0.13480
C1222       C  0.98147957  0.46447721  0.41765836     0.00170
C1223       C  0.97464075  0.50021944  0.44059989    -0.12000
C1224       C  0.98113420  0.53688259  0.41938465     0.02660
C1225       C  0.99130378  0.53831092  0.37346662    -0.11420
H1226       H  0.99735618  0.43780820  0.35377512     0.08260
H1227       H  0.96718217  0.49980324  0.47627298     0.05790
H1228       H  0.99394575  0.56694536  0.35673575     0.05630
C1229       C  0.83856419  0.66846182  0.34512488     0.02670
C1230       C  0.87515832  0.67315120  0.37037001    -0.13480
C1231       C  0.87348609  0.66762111  0.41704071     0.00170
C1232       C  0.83546905  0.32118300  0.43723505    -0.12000
C1233       C  0.79809449  0.65363817  0.41354205     0.02660
C1234       C  0.79998176  0.66069112  0.36730557    -0.11420
H1235       H  0.90455647  0.68131958  0.35382493     0.08260
H1236       H  0.83482836  0.31168585  0.47156420     0.05790
H1237       H  0.77145708  0.65948637  0.34840571     0.05630
C1238       C  0.82417205  0.65692228  0.65396551     0.02670
C1239       C  0.86288849  0.65266922  0.63132808    -0.13480
C1240       C  0.86637687  0.65752179  0.58488879     0.00170
C1241       C  0.83169065  0.33750075  0.56192976    -0.12000
C1242       C  0.79191436  0.67173697  0.58258451     0.02660
C1243       C  0.78824703  0.66353823  0.62872998    -0.11420
H1244       H  0.89060286  0.64637969  0.64988227     0.08260
H1245       H  0.83576333  0.34774345  0.52803640     0.05790
H1246       H  0.75779511  0.66346629  0.64515564     0.05630
C1247       C  0.00462712  0.50323670  0.65064737     0.02670
C1248       C  0.01224892  0.46653945  0.62862614    -0.13480
C1249       C  0.02138342  0.46561169  0.58229588     0.00170
C1250       C  0.02427448  0.50138607  0.55876437    -0.12000
C1251       C  0.01380920  0.53739461  0.57937957     0.02660
C1252       C  0.00277316  0.53834556  0.62498419    -0.11420
H1253       H  0.01127483  0.43887662  0.64736344     0.08260
H1254       H  0.03159158  0.50097193  0.52305671     0.05790
H1255       H  0.99469356  0.56648859  0.64074925     0.05630
C1256       C  0.82698491  0.67430680  0.15181743     0.02670
C1257       C  0.81948227  0.63679794  0.13089261    -0.13480
C1258       C  0.80946475  0.63431846  0.08547405     0.00170
C1259       C  0.80652287  0.67000469  0.06103326    -0.12000
C1260       C  0.81666174  0.37444311  0.08035186     0.02660
C1261       C  0.82773508  0.37607996  0.12569254    -0.11420
H1262       H  0.82035721  0.60952205  0.15020304     0.08260
H1263       H  0.79876601  0.66803827  0.02587226     0.05790
H1264       H  0.83614427  0.40467869  0.14089347     0.05630
O1265       O  0.83129731  0.56660184  0.06860952    -0.80590
O1266       O  0.79864736  0.40962690  0.01481658    -0.80620
O1267       O  0.77378417  0.51122655  0.06065412    -0.80630
O1268       O  0.92317607  0.45043010  0.03180353    -0.80570
O1269       O  0.74209008  0.46755870  0.01647796    -0.80690
O1270       O  0.89469655  0.50196539  0.06761316    -0.80610
O1271       O  0.84191065  0.44086031  0.05971499    -0.80590
O1272       O  0.77780080  0.58988998  0.03212022    -0.80630
C1273       C  0.80542640  0.59507061  0.06171900     1.09100
C1274       C  0.81805615  0.41086832  0.05147332     1.08980
C1275       C  0.74394715  0.48658271  0.05360454     1.09120
C1276       C  0.92543595  0.47801316  0.06145289     1.09000
O1277       O  0.92063617  0.53303177  0.98130900    -0.80600
O1278       O  0.76637880  0.48989405  0.92505143    -0.80670
O1279       O  0.81024331  0.56808212  0.94978035    -0.80610
O1280       O  0.86814396  0.41040439  0.97398567    -0.80590
O1281       O  0.82474444  0.43124588  0.92449694    -0.80640
O1282       O  0.86524283  0.58910734  0.98275396    -0.80610
O1283       O  0.90090950  0.47822225  0.94893635    -0.80560
O1284       O  0.74202737  0.53220127  0.97482794    -0.80630
Co1285     Co  0.87225162  0.54159950  0.02192999     1.51530
Co1286     Co  0.78580480  0.45288629  0.97085574     1.51690
Co1287     Co  0.79529735  0.54043655  0.00650309     1.51570
Co1288     Co  0.87248236  0.46330649  0.00572680     1.51470
O1289       O  0.82883064  0.49682369  0.98831825    -1.42530
C1290       C  0.92380153  0.50884195  0.94914334     1.09020
C1291       C  0.73912245  0.51425966  0.93731693     1.09110
C1292       C  0.84015199  0.59255705  0.95149324     1.09050
C1293       C  0.84961258  0.40515882  0.93718941     1.09020
C1294       C  0.00252733  0.49613321  0.15458493     0.02670
C1295       C  0.70723330  0.49364894  0.12980204    -0.13480
C1296       C  0.70658813  0.48526338  0.08344780     0.00170
C1297       C  0.00155825  0.47785833  0.06308621    -0.12000
C1298       C  0.96408675  0.48327144  0.08639047     0.02660
C1299       C  0.96465714  0.49477645  0.13143013    -0.11420
H1300       H  0.73684333  0.49689300  0.14645355     0.08260
H1301       H  0.00059384  0.47041000  0.02763772     0.05790
H1302       H  0.93545420  0.50013720  0.14908303     0.05630
C1303       C  0.83574370  0.65797005  0.84799264     0.02670
C1304       C  0.83328089  0.62396472  0.87573797    -0.13480
C1305       C  0.84352470  0.62715477  0.92120621     0.00170
C1306       C  0.85375183  0.66480390  0.93951147    -0.12000
C1307       C  0.85116465  0.36614319  0.91382278     0.02660
C1308       C  0.84341149  0.36255946  0.86785884    -0.11420
H1309       H  0.82391936  0.59504948  0.86197543     0.08260
H1310       H  0.85987236  0.66740288  0.97505729     0.05790
H1311       H  0.84316975  0.38940783  0.84777303     0.05630
C1312       C  0.99363377  0.50560774  0.84492668     0.02670
C1313       C  0.95660409  0.50622906  0.87137651    -0.13480
C1314       C  0.95908013  0.51294865  0.91787654     0.00170
C1315       C  0.99744302  0.52029098  0.93728423    -0.12000
C1316       C  0.70071889  0.51637216  0.91242179     0.02660
C1317       C  0.69905827  0.50880851  0.86628864    -0.11420
H1318       H  0.92638050  0.50277459  0.85606880     0.08260
H1319       H  0.99884100  0.52507274  0.97328941     0.05790
H1320       H  0.72784066  0.50598459  0.84693663     0.05630
C1321       C  0.97366868  0.47674972  0.72278618    -0.09610
C1322       C  0.99983338  0.50498958  0.70029375     0.06580
C1323       C  0.68965511  0.53321763  0.72592294    -0.03380
C1324       C  0.68531822  0.53357256  0.77249894    -0.07830
C1325       C  0.99319775  0.50506387  0.79514365     0.05700
C1326       C  0.97061654  0.47619648  0.76982492    -0.02860
Br1327     Br  0.93837006  0.43329020  0.79725350    -0.02550
H1328       H  0.95619349  0.45444728  0.70371901     0.09610
H1329       H  0.70321931  0.55569766  0.79139862     0.07630
Br1330     Br  0.73141011  0.56936478  0.70047941    -0.02980
C1331       C  0.84454643  0.62509906  0.72528668    -0.09610
C1332       C  0.82228289  0.65480792  0.70386068     0.06580
C1333       C  0.80283219  0.35100112  0.73057410    -0.03380
C1334       C  0.80549821  0.34985982  0.77734661    -0.07830
C1335       C  0.82939161  0.65457279  0.79865650     0.05700
C1336       C  0.84934909  0.62540123  0.77181466    -0.02860
Br1337     Br  0.88807551  0.58833164  0.79507169    -0.02550
H1338       H  0.86015965  0.60249161  0.70543375     0.09610
H1339       H  0.79011550  0.37267974  0.79708588     0.07630
Br1340     Br  0.77678596  0.39668674  0.70571841    -0.02980
C1341       C  0.86004834  0.64931816  0.22101827    -0.09610
C1342       C  0.83317338  0.67627611  0.20117093     0.06580
C1343       C  0.80974978  0.36855871  0.22935449    -0.03380
C1344       C  0.81364691  0.36682489  0.27593597    -0.07830
C1345       C  0.83968314  0.67258555  0.29564574     0.05700
C1346       C  0.86297599  0.64687251  0.26773285    -0.02860
Br1347     Br  0.89561638  0.60501425  0.29156727    -0.02550
H1348       H  0.87781615  0.62902427  0.20009832     0.09610
H1349       H  0.79492889  0.38613484  0.29709760     0.07630
Br1350     Br  0.76825607  0.40332926  0.20726091    -0.02980
C1351       C  0.97130130  0.47676167  0.27621614    -0.09610
C1352       C  0.99913738  0.50209290  0.29938134     0.06580
C1353       C  0.69578940  0.52515401  0.27473251    -0.03380
C1354       C  0.69636393  0.52330620  0.22761666    -0.07830
C1355       C  0.00151216  0.49789297  0.20448183     0.05700
C1356       C  0.97286868  0.47356128  0.22970107    -0.02860
Br1357     Br  0.93720881  0.43228039  0.20417529    -0.02550
H1358       H  0.94841336  0.45850378  0.29464040     0.09550
H1359       H  0.71909264  0.54160129  0.20906692     0.07630
Br1360     Br  0.73845379  0.55711313  0.30340607    -0.02980
O1361       O  0.93758345  0.67488887  0.57169660    -0.80590
O1362       O  0.72245987  0.98769898  0.56174647    -0.80620
O1363       O  0.98533752  0.93038678  0.54874558    -0.80630
O1364       O  0.70434684  0.76006757  0.51740292    -0.80570
O1365       O  0.71522642  0.91207352  0.52735048    -0.80690
O1366       O  0.99485293  0.73418172  0.56864580    -0.80610
O1367       O  0.75748709  0.69747926  0.51854180    -0.80590
O1368       O  0.91040454  0.96624767  0.52512048    -0.80630
C1369       C  0.90700325  0.98648960  0.56094676     1.09100
C1370       C  0.75464649  0.67640910  0.55426439     1.08980
C1371       C  0.68279254  0.90630711  0.55143371     1.09120
C1372       C  0.68669297  0.76152048  0.55608331     1.09000
O1373       O  0.96549418  0.75920447  0.48237355    -0.80600
O1374       O  0.67659698  0.93074895  0.45106147    -0.80670
O1375       O  0.94199116  0.98487672  0.43793003    -0.80610
O1376       O  0.72874730  0.67419788  0.42761984    -0.80590
O1377       O  0.75283247  0.96649107  0.47493959    -0.80640
O1378       O  0.90936868  0.69568046  0.48045793    -0.80610
O1379       O  0.67413819  0.73406328  0.43075371    -0.80560
O1380       O  0.94611091  0.91010781  0.47210548    -0.80630
Co1381     Co  0.95443466  0.71373996  0.52507110     1.51530
Co1382     Co  0.69734735  0.96171896  0.50831799     1.51690
Co1383     Co  0.96582838  0.96059689  0.49159559     1.51570
Co1384     Co  0.71334500  0.71406273  0.47426180     1.51470
O1385       O  0.99953031  0.67835132  0.49957370    -1.42530
C1386       C  0.98319759  0.76086835  0.44378677     1.09020
C1387       C  0.97847531  0.90575209  0.44772205     1.09110
C1388       C  0.91096942  0.00667352  0.44522075     1.09050
C1389       C  0.75738731  0.65162753  0.43836557     1.09020
C1390       C  0.99577191  0.83569873  0.34905774     0.02670
C1391       C  0.99225169  0.79891124  0.37187016    -0.13480
C1392       C  0.98148016  0.79781066  0.41765810     0.00170
C1393       C  0.97464245  0.83355301  0.44059979    -0.12000
C1394       C  0.98113636  0.87021609  0.41938453     0.02660
C1395       C  0.99130535  0.87164431  0.37346637    -0.11420
H1396       H  0.99735564  0.77114143  0.35377466     0.08260
H1397       H  0.96718420  0.83313687  0.47627295     0.05790
H1398       H  0.99394751  0.90027875  0.35673550     0.05630
C1399       C  0.83856702  0.00179495  0.34512498     0.02670
C1400       C  0.87516113  0.00648447  0.37037014    -0.13480
C1401       C  0.87348886  0.00095464  0.41704090     0.00170
C1402       C  0.83546852  0.65451626  0.43723481    -0.12000
C1403       C  0.79809726  0.98697157  0.41354228     0.02660
C1404       C  0.79998456  0.99402434  0.36730574    -0.11420
H1405       H  0.90455927  0.01465284  0.35382505     0.08260
H1406       H  0.83482776  0.64501901  0.47156391     0.05790
H1407       H  0.77145988  0.99281955  0.34840589     0.05630
C1408       C  0.82417506  0.99025473  0.65396563     0.02670
C1409       C  0.86289140  0.98600166  0.63132811    -0.13480
C1410       C  0.86637965  0.99085447  0.58488889     0.00170
C1411       C  0.83169010  0.67083408  0.56192952    -0.12000
C1412       C  0.79191717  0.00506971  0.58258484     0.02660
C1413       C  0.78824994  0.99687074  0.62873026    -0.11420
H1414       H  0.89060583  0.97971209  0.64988220     0.08260
H1415       H  0.83576284  0.68107671  0.52803615     0.05790
H1416       H  0.75779809  0.99679885  0.64515605     0.05630
C1417       C  0.00462720  0.83656990  0.65064700     0.02670
C1418       C  0.01224881  0.79987256  0.62862586    -0.13480
C1419       C  0.02138387  0.79894475  0.58229569     0.00170
C1420       C  0.02427594  0.83471915  0.55876431    -0.12000
C1421       C  0.01381075  0.87072775  0.57937938     0.02660
C1422       C  0.00277386  0.87167875  0.62498374    -0.11420
H1423       H  0.01127413  0.77220971  0.64736313     0.08260
H1424       H  0.03159357  0.83430502  0.52305675     0.05790
H1425       H  0.99469417  0.89982182  0.64074862     0.05630
C1426       C  0.82698653  0.00764008  0.15181752     0.02670
C1427       C  0.81948355  0.97013122  0.13089277    -0.13480
C1428       C  0.80946522  0.96765178  0.08547439     0.00170
C1429       C  0.80652292  0.00333805  0.06103375    -0.12000
C1430       C  0.81666187  0.70777661  0.08035154     0.02660
C1431       C  0.82773517  0.70941363  0.12569223    -0.11420
H1432       H  0.82035883  0.94285532  0.15020314     0.08260
H1433       H  0.79876545  0.00137166  0.02587292     0.05790
H1434       H  0.83614423  0.73801242  0.14089307     0.05630
O1435       O  0.83129731  0.89993500  0.06860967    -0.80590
O1436       O  0.79864721  0.74296029  0.01481627    -0.80620
O1437       O  0.77378397  0.84455996  0.06065392    -0.80630
O1438       O  0.92317594  0.78376343  0.03180288    -0.80570
O1439       O  0.74208991  0.80089215  0.01647768    -0.80690
O1440       O  0.89469636  0.83529841  0.06761299    -0.80610
O1441       O  0.84191062  0.77419373  0.05971451    -0.80590
O1442       O  0.77780098  0.92322351  0.03212040    -0.80630
C1443       C  0.80542658  0.92840393  0.06171924     1.09100
C1444       C  0.81805611  0.74420174  0.05147294     1.08980
C1445       C  0.74394696  0.81991611  0.05360429     1.09120
C1446       C  0.92543577  0.81134625  0.06145251     1.09000
O1447       O  0.92063609  0.86636502  0.98130901    -0.80600
O1448       O  0.76637863  0.82322762  0.92505130    -0.80670
O1449       O  0.81024345  0.90141575  0.94978037    -0.80610
O1450       O  0.86814376  0.74373780  0.97398516    -0.80590
O1451       O  0.82474414  0.76457926  0.92449656    -0.80640
O1452       O  0.86524295  0.92244067  0.98275426    -0.80610
O1453       O  0.90090920  0.81155584  0.94893581    -0.80560
O1454       O  0.74202728  0.86553492  0.97482780    -0.80630
Co1455     Co  0.87225155  0.87493270  0.02193004     1.51530
Co1456     Co  0.78580461  0.78621974  0.97085547     1.51690
Co1457     Co  0.79529729  0.87377005  0.00650301     1.51570
Co1458     Co  0.87248221  0.79663992  0.00572628     1.51470
O1459       O  0.82883046  0.83015714  0.98831803    -1.42530
C1460       C  0.92380133  0.84217547  0.94914306     1.09020
C1461       C  0.73912228  0.84759320  0.93731684     1.09110
C1462       C  0.84015227  0.92589051  0.95149343     1.09050
C1463       C  0.84961228  0.73849218  0.93718897     1.09020
C1464       C  0.00252718  0.82946631  0.15458449     0.02670
C1465       C  0.70723315  0.82698232  0.12980178    -0.13480
C1466       C  0.70658796  0.81859663  0.08344756     0.00170
C1467       C  0.00155802  0.81119140  0.06308577    -0.12000
C1468       C  0.96408656  0.81660445  0.08639009     0.02660
C1469       C  0.96465696  0.82810950  0.13142974    -0.11420
H1470       H  0.73684319  0.83022655  0.14645322     0.08260
H1471       H  0.00059358  0.80374312  0.02763726     0.05790
H1472       H  0.93545404  0.83347029  0.14908264     0.05630
C1473       C  0.83574610  0.99130349  0.84799270     0.02670
C1474       C  0.83328276  0.95729813  0.87573795    -0.13480
C1475       C  0.84352542  0.96048821  0.92120649     0.00170
C1476       C  0.85375200  0.99813735  0.93951202    -0.12000
C1477       C  0.85116428  0.69947649  0.91382239     0.02660
C1478       C  0.84341071  0.69589260  0.86785854    -0.11420
H1479       H  0.82392167  0.92838286  0.86197515     0.08260
H1480       H  0.85987170  0.00073634  0.97505803     0.05790
H1481       H  0.84316867  0.72274093  0.84777267     0.05630
C1482       C  0.99363340  0.83894156  0.84492629     0.02670
C1483       C  0.95660377  0.83956281  0.87137619    -0.13480
C1484       C  0.95907988  0.84628236  0.91787622     0.00170
C1485       C  0.99744279  0.85362472  0.93728385    -0.12000
C1486       C  0.70071864  0.84970554  0.91242179     0.02660
C1487       C  0.69905801  0.84214169  0.86628870    -0.11420
H1488       H  0.92638016  0.83610829  0.85606853     0.08260
H1489       H  0.99884082  0.85840640  0.97328903     0.05790
H1490       H  0.72784041  0.83931774  0.84693671     0.05630
C1491       C  0.97366846  0.81008318  0.72278584    -0.09610
C1492       C  0.99983320  0.83832298  0.70029336     0.06580
C1493       C  0.68965576  0.86655046  0.72592314    -0.03380
C1494       C  0.68531842  0.86690552  0.77249909    -0.07830
C1495       C  0.99319730  0.83839762  0.79514326     0.05700
C1496       C  0.97061619  0.80953011  0.76982459    -0.02860
Br1497     Br  0.93836971  0.76662389  0.79725327    -0.02550
H1498       H  0.95619336  0.78778063  0.70371872     0.09610
H1499       H  0.70321948  0.88903056  0.79139888     0.07630
Br1500     Br  0.73141142  0.90269718  0.70048006    -0.02980
C1501       C  0.84454978  0.95843210  0.72528701    -0.09610
C1502       C  0.82228616  0.98814076  0.70386076     0.06580
C1503       C  0.80283101  0.68433405  0.73057399    -0.03380
C1504       C  0.80549705  0.68319267  0.77734652    -0.07830
C1505       C  0.82939472  0.98790627  0.79865650     0.05700
C1506       C  0.84935245  0.95873466  0.77181498    -0.02860
Br1507     Br  0.88807919  0.92166562  0.79507249    -0.02550
H1508       H  0.86016303  0.93582453  0.70543429     0.09610
H1509       H  0.79011428  0.70601252  0.79708584     0.07630
Br1510     Br  0.77678442  0.73001953  0.70571845    -0.02980
C1511       C  0.86005067  0.98265147  0.22101811    -0.09610
C1512       C  0.83317555  0.00960942  0.20117098     0.06580
C1513       C  0.80974982  0.70189260  0.22935423    -0.03380
C1514       C  0.81364675  0.70015873  0.27593574    -0.07830
C1515       C  0.83968592  0.00591880  0.29564581     0.05700
C1516       C  0.86297869  0.98020584  0.26773269    -0.02860
Br1517     Br  0.89561959  0.93834783  0.29156682    -0.02550
H1518       H  0.87781832  0.96235759  0.20009799     0.09610
H1519       H  0.79492864  0.71946866  0.29709731     0.07630
Br1520     Br  0.76825625  0.73666322  0.20726050    -0.02980
C1521       C  0.97130139  0.81009514  0.27621587    -0.09610
C1522       C  0.99913772  0.83542624  0.29938092     0.06580
C1523       C  0.69578968  0.85848761  0.27473210    -0.03380
C1524       C  0.69636402  0.85663971  0.22761626    -0.07830
C1525       C  0.00151208  0.83122620  0.20448139     0.05700
C1526       C  0.97286859  0.80689467  0.22970079    -0.02860
Br1527     Br  0.93720850  0.76561383  0.20417523    -0.02550
H1528       H  0.94841343  0.79183737  0.29464024     0.09550
H1529       H  0.71909277  0.87493466  0.20906639     0.07630
Br1530     Br  0.73845445  0.89044648  0.30340535    -0.02980
loop_ 
_geom_bond_atom_site_label_1 
_geom_bond_atom_site_label_2 
_geom_bond_distance 
_geom_bond_site_symmetry_2 
_ccdc_geom_bond_type 
O1          Co21   1.966       .  S
O1          C349   1.248   1_545  A
O2          Co22   1.981       .  S
O2          C180   1.267       .  A
O3          Co23   2.104       .  S
O3          C521   1.297       .  A
O4          Co24   2.018       .  S
O4           C12   1.274       .  A
O5          Co22   1.868       .  S
O5           C11   1.262       .  A
O6          Co21   1.959       .  S
O6          C522   1.255       .  A
O7          Co24   2.048       .  S
O7           C10   1.282       .  A
O8          Co23   2.033       .  S
O8            C9   1.263       .  A
C9          O171   1.248       .  A
C9           C50   1.482       .  S
C10         O342   1.267   1_545  A
C10         C392   1.491       .  S
C11        O1023   1.297   1_455  A
C11        C1081   1.457       .  S
C12        O1026   1.255   1_455  A
C12        C1079   1.468       .  S
O13         Co21   2.009       .  S
O13          C26   1.272       .  A
O14         Co22   2.098       .  S
O14        C1047   1.295   1_455  A
O15         Co23   1.978       .  S
O15          C28   1.265       .  A
O16         Co24   1.982       .  S
O16          C29   1.255   1_545  A
O17         Co22   2.023       .  S
O17         C199   1.261       .  A
O18         Co21   2.058       .  S
O18         C368   1.284       .  A
O19         Co24   1.961       .  S
O19        C1046   1.258   1_455  A
O20         Co23   1.875       .  S
O20          C27   1.265       .  A
Co21         O25   2.027       .  S
Co22       O1215   1.993   1_455  S
Co23        O195   2.008       .  S
Co24       O1045   2.034   1_455  S
O25        Co872   1.993   1_545  S
O25        Co363   2.008   1_545  S
O25        Co534   2.034       .  S
C26         O529   1.258       .  A
C26          C32   1.469       .  S
C27         O524   1.295       .  A
C27          C34   1.454       .  S
C28         O188   1.284       .  A
C28          C41   1.488       .  S
C29         O357   1.261       .  A
C29         C383   1.487       .  S
C30         C162   1.482       .  S
C30          C31   1.411       .  A
C30          C35   1.408       .  A
C31          C32   1.401       .  A
C31          H36   1.084       .  S
C32          C33   1.392       .  A
C33          C34   1.392       .  A
C33          H37   1.085       .  S
C34          C35   1.401       .  A
C35          H38   1.083       .  S
C39         C155   1.482       .  S
C39          C40   1.412       .  A
C39          C44   1.409       .  A
C40          C41   1.404       .  A
C40          H45   1.083       .  S
C41         C212   1.408       .  A
C42         C381   1.408   1_565  A
C42         C383   1.404       .  A
C42          H46   1.074       .  S
C43         C199   1.487       .  S
C43          C44   1.400       .  A
C43         C212   1.404       .  A
C44          H47   1.084       .  S
C48         C142   1.489       .  S
C48          C49   1.411       .  A
C48          C53   1.413       .  A
C49          C50   1.397       .  A
C49          H54   1.084       .  S
C50         C221   1.404       .  A
C51         C390   1.404   1_545  A
C51         C392   1.405       .  A
C51          H55   1.074       .  S
C52         C180   1.491       .  S
C52          C53   1.406       .  A
C52         C221   1.405       .  A
C53          H56   1.083       .  S
C57         C132   1.485       .  S
C57          C58   1.411       .  A
C57          C62   1.410       .  A
C58          C59   1.406       .  A
C58          H63   1.084       .  S
C59         C522   1.468       .  S
C59          C60   1.391       .  A
C60          C61   1.393       .  A
C60          H64   1.085       .  S
C61         C521   1.457       .  S
C61          C62   1.397       .  A
C62          H65   1.083       .  S
C66         C152   1.489       .  S
C66          C67   1.411       .  A
C66         C241   1.413       .  A
C67          C68   1.399       .  A
C67          H72   1.084       .  S
C68          C83   1.488       .  S
C68          C69   1.410       .  A
C69         C240   1.414       .  A
C69          H73   1.083       .  S
C70          C84   1.496       .  S
C70          C71   1.405       .  A
C70         C409   1.414       .  A
C71         C406   1.413       .  A
C71          H74   1.083       .  S
O75         Co95   2.080       .  S
O75          C83   1.302       .  A
O76         Co96   2.017   1_554  S
O76          C84   1.269       .  A
O77         Co97   1.993       .  S
O77          C85   1.263       .  A
O78         Co98   1.880       .  S
O78          C86   1.273       .  A
O79         Co96   2.000   1_554  S
O79          C85   1.273       .  A
O80         Co95   2.064       .  S
O80          C86   1.297       .  A
O81         Co98   2.006       .  S
O81          C84   1.268       .  A
O82         Co97   1.909       .  S
O82          C83   1.271       .  A
C85         C106   1.477       .  S
C86         C108   1.464       .  S
O87         Co95   1.974   1_556  S
O87         C100   1.253       .  A
O88         Co96   1.973       .  S
O88         C101   1.259       .  A
O89         Co97   1.977   1_556  S
O89         C102   1.243       .  A
O90         Co98   2.000   1_556  S
O90         C103   1.267       .  A
O91         Co96   1.988       .  S
O91         C103   1.265       .  A
O92         Co95   2.000   1_556  S
O92         C102   1.252       .  A
O93         Co98   1.966   1_556  S
O93         C100   1.241       .  A
O94         Co97   1.981   1_556  S
O94         C101   1.268       .  A
Co95         O99   2.256   1_554  S
Co96         O99   2.056       .  S
Co97         O99   1.905   1_554  S
Co98         O99   1.903   1_554  S
C100        C124   1.454       .  S
C101        C126   1.455       .  S
C102        C115   1.473       .  S
C103        C117   1.474       .  S
C104        C165   1.487       .  S
C104        C109   1.409       .  A
C104        C615   1.417       .  A
C105        C106   1.408       .  A
C105       C1124   1.417       .  A
C105        H110   1.083       .  S
C106       C1127   1.398       .  A
C107        C108   1.391       .  A
C107        C616   1.398       .  A
C107        H111   1.084       .  S
C108        C109   1.393       .  A
C109        H112   1.083       .  S
C113        C145   1.492       .  S
C113        C114   1.411       .  A
C113        C288   1.411       .  A
C114        C115   1.404       .  A
C114        H119   1.083       .  S
C115        C116   1.399       .  A
C116        C287   1.400       .  A
C116        H120   1.084       .  S
C117        C118   1.401       .  A
C117        C456   1.400   1_545  A
C118        C453   1.411   1_545  A
C118        H121   1.083       .  S
C122        C135   1.484       .  S
C122        C123   1.412       .  A
C122        C637   1.410       .  A
C123        C124   1.405       .  A
C123        H128   1.083       .  S
C124        C125   1.385       .  A
C125        C636   1.384       .  A
C125        H129   1.085       .  S
C126        C127   1.397       .  A
C126       C1145   1.384   1_455  A
C127       C1142   1.410   1_455  A
C127        H130   1.084       .  S
C131        C132   1.408       .  A
C131        C136   1.403       .  A
C131        H138   1.083       .  S
C132        C643   1.412       .  A
C133        C134   1.392       .  A
C133       C1152   1.412   1_455  A
C133       Br140   1.924       .  S
C134       C1155   1.404   1_455  A
C134        H139   1.084       .  S
C135        C136   1.412       .  A
C135        C644   1.404       .  A
C136       Br137   1.921       .  S
C141        C142   1.406       .  A
C141        C146   1.398       .  A
C141        H148   1.083       .  S
C142        C313   1.413       .  A
C143        C144   1.399       .  A
C143        C482   1.413   1_545  A
C143       Br150   1.924       .  S
C144        C485   1.408   1_545  A
C144        H149   1.083       .  S
C145        C146   1.415       .  A
C145        C314   1.408       .  A
C146       Br147   1.924       .  S
C151        C152   1.408       .  A
C151        C156   1.401       .  A
C151        H158   1.083       .  S
C152        C323   1.415       .  A
C153        C154   1.398       .  A
C153        C492   1.415       .  A
C153       Br160   1.923       .  S
C154        C495   1.403       .  A
C154        H159   1.084       .  S
C155        C156   1.410       .  A
C155        C324   1.403       .  A
C156       Br157   1.922       .  S
C161        C162   1.400       .  A
C161        C166   1.389       .  A
C161        H168   1.084       .  S
C162        C673   1.412       .  A
C163        C164   1.405       .  A
C163       C1182   1.412   1_455  A
C163       Br170   1.921       .  S
C164       C1185   1.408       .  A
C164        H169   1.083       .  S
C165        C166   1.416       .  A
C165        C674   1.408       .  A
C166       Br167   1.927       .  S
O171       Co191   1.966       .  S
O172       Co192   1.981       .  S
O172        C350   1.267       .  A
O173       Co193   2.104       .  S
O173        C691   1.297       .  A
O174       Co194   2.018       .  S
O174        C182   1.274       .  A
O175       Co192   1.868       .  S
O175        C181   1.262       .  A
O176       Co191   1.959       .  S
O176        C692   1.255       .  A
O177       Co194   2.048       .  S
O177        C180   1.282       .  A
O178       Co193   2.033       .  S
O178        C179   1.263       .  A
C179        O341   1.248       .  A
C179        C220   1.482       .  S
C181       O1193   1.297   1_455  A
C181       C1251   1.457       .  S
C182       O1196   1.255   1_455  A
C182       C1249   1.468       .  S
O183       Co191   2.009       .  S
O183        C196   1.272       .  A
O184       Co192   2.098       .  S
O184       C1217   1.295   1_455  A
O185       Co193   1.978       .  S
O185        C198   1.265       .  A
O186       Co194   1.982       .  S
O186        C199   1.255       .  A
O187       Co192   2.023       .  S
O187        C369   1.261       .  A
O188       Co191   2.058       .  S
O189       Co194   1.961       .  S
O189       C1216   1.258   1_455  A
O190       Co193   1.875       .  S
O190        C197   1.265       .  A
Co191       O195   2.027       .  S
Co192      O1385   1.993   1_455  S
Co193       O365   2.008       .  S
Co194      O1215   2.034   1_455  S
O195       Co532   1.993       .  S
O195       Co704   2.034       .  S
C196        O699   1.258       .  A
C196        C202   1.469       .  S
C197        O694   1.295       .  A
C197        C204   1.454       .  S
C198        O358   1.284       .  A
C198        C211   1.488       .  S
C200        C332   1.482       .  S
C200        C201   1.411       .  A
C200        C205   1.408       .  A
C201        C202   1.401       .  A
C201        H206   1.084       .  S
C202        C203   1.392       .  A
C203        C204   1.392       .  A
C203        H207   1.085       .  S
C204        C205   1.401       .  A
C205        H208   1.083       .  S
C209        C325   1.482       .  S
C209        C210   1.412       .  A
C209        C214   1.409       .  A
C210        C211   1.404       .  A
C210        H215   1.083       .  S
C211        C382   1.408       .  A
C212        H216   1.074       .  S
C213        C369   1.487       .  S
C213        C382   1.404       .  A
C213        C214   1.400       .  A
C214        H217   1.084       .  S
C218        C312   1.489       .  S
C218        C219   1.411       .  A
C218        C223   1.413       .  A
C219        C220   1.397       .  A
C219        H224   1.084       .  S
C220        C391   1.404       .  A
C221        H225   1.074       .  S
C222        C350   1.491       .  S
C222        C391   1.405       .  A
C222        C223   1.406       .  A
C223        H226   1.083       .  S
C227        C302   1.485       .  S
C227        C228   1.411       .  A
C227        C232   1.410       .  A
C228        C229   1.406       .  A
C228        H233   1.084       .  S
C229        C692   1.468       .  S
C229        C230   1.391       .  A
C230        C231   1.393       .  A
C230        H234   1.085       .  S
C231        C691   1.457       .  S
C231        C232   1.397       .  A
C232        H235   1.083       .  S
C236        C322   1.489       .  S
C236        C237   1.411       .  A
C236        C411   1.413       .  A
C237        C238   1.399       .  A
C237        H242   1.084       .  S
C238        C253   1.488       .  S
C238        C239   1.410       .  A
C239        C410   1.414       .  A
C239        H243   1.083       .  S
C240        C254   1.496       .  S
C240        C241   1.405       .  A
C241        H244   1.083       .  S
O245       Co265   2.080       .  S
O245        C253   1.302       .  A
O246       Co266   2.017   1_554  S
O246        C254   1.269       .  A
O247       Co267   1.993       .  S
O247        C255   1.263       .  A
O248       Co268   1.880       .  S
O248        C256   1.273       .  A
O249       Co266   2.000   1_554  S
O249        C255   1.273       .  A
O250       Co265   2.064       .  S
O250        C256   1.297       .  A
O251       Co268   2.006       .  S
O251        C254   1.268       .  A
O252       Co267   1.909       .  S
O252        C253   1.271       .  A
C255        C276   1.477       .  S
C256        C278   1.464       .  S
O257       Co265   1.974   1_556  S
O257        C270   1.253       .  A
O258       Co266   1.973       .  S
O258        C271   1.259       .  A
O259       Co267   1.977   1_556  S
O259        C272   1.243       .  A
O260       Co268   2.000   1_556  S
O260        C273   1.267       .  A
O261       Co266   1.988       .  S
O261        C273   1.265       .  A
O262       Co265   2.000   1_556  S
O262        C272   1.252       .  A
O263       Co268   1.966   1_556  S
O263        C270   1.241       .  A
O264       Co267   1.981   1_556  S
O264        C271   1.268       .  A
Co265       O269   2.256   1_554  S
Co266       O269   2.056       .  S
Co267       O269   1.905   1_554  S
Co268       O269   1.903   1_554  S
C270        C294   1.454       .  S
C271        C296   1.455       .  S
C272        C285   1.473       .  S
C273        C287   1.474       .  S
C274        C335   1.487       .  S
C274        C785   1.417       .  A
C274        C279   1.409       .  A
C275       C1294   1.417       .  A
C275        C276   1.408       .  A
C275        H280   1.083       .  S
C276       C1297   1.398       .  A
C277        C786   1.398       .  A
C277        C278   1.391       .  A
C277        H281   1.084       .  S
C278        C279   1.393       .  A
C279        H282   1.083       .  S
C283        C315   1.492       .  S
C283        C284   1.411       .  A
C283        C458   1.411       .  A
C284        C285   1.404       .  A
C284        H289   1.083       .  S
C285        C286   1.399       .  A
C286        C457   1.400       .  A
C286        H290   1.084       .  S
C287        C288   1.401       .  A
C288        H291   1.083       .  S
C292        C305   1.484       .  S
C292        C293   1.412       .  A
C292        C807   1.410       .  A
C293        C294   1.405       .  A
C293        H298   1.083       .  S
C294        C295   1.385       .  A
C295        C806   1.384       .  A
C295        H299   1.085       .  S
C296       C1315   1.384   1_455  A
C296        C297   1.397       .  A
C297       C1312   1.410   1_455  A
C297        H300   1.084       .  S
C301        C302   1.408       .  A
C301        C306   1.403       .  A
C301        H308   1.083       .  S
C302        C813   1.412       .  A
C303       C1322   1.412   1_455  A
C303        C304   1.392       .  A
C303       Br310   1.924       .  S
C304       C1325   1.404   1_455  A
C304        H309   1.084       .  S
C305        C814   1.404       .  A
C305        C306   1.412       .  A
C306       Br307   1.921       .  S
C311        C312   1.406       .  A
C311        C316   1.398       .  A
C311        H318   1.083       .  S
C312        C483   1.413       .  A
C313        C314   1.399       .  A
C313       Br320   1.924       .  S
C314        H319   1.083       .  S
C315        C484   1.408       .  A
C315        C316   1.415       .  A
C316       Br317   1.924       .  S
C321        C322   1.408       .  A
C321        C326   1.401       .  A
C321        H328   1.083       .  S
C322        C493   1.415       .  A
C323        C324   1.398       .  A
C323       Br330   1.923       .  S
C324        H329   1.084       .  S
C325        C494   1.403       .  A
C325        C326   1.410       .  A
C326       Br327   1.922       .  S
C331        C332   1.400       .  A
C331        C336   1.389       .  A
C331        H338   1.084       .  S
C332        C843   1.412       .  A
C333       C1352   1.412   1_455  A
C333        C334   1.405       .  A
C333       Br340   1.921       .  S
C334       C1355   1.408       .  A
C334        H339   1.083       .  S
C335        C844   1.408       .  A
C335        C336   1.416       .  A
C336       Br337   1.927       .  S
O341       Co361   1.966       .  S
O342       Co362   1.981       .  S
O343       Co363   2.104       .  S
O343        C861   1.297       .  A
O344       Co364   2.018       .  S
O344        C352   1.274       .  A
O345       Co362   1.868       .  S
O345        C351   1.262       .  A
O346       Co361   1.959       .  S
O346        C862   1.255       .  A
O347       Co364   2.048       .  S
O347        C350   1.282       .  A
O348       Co363   2.033       .  S
O348        C349   1.263       .  A
C349        C390   1.482       .  S
C351       O1363   1.297   1_455  A
C351       C1421   1.457       .  S
C352       O1366   1.255   1_455  A
C352       C1419   1.468       .  S
O353       Co361   2.009       .  S
O353        C366   1.272       .  A
O354       Co362   2.098       .  S
O354       C1387   1.295   1_455  A
O355       Co363   1.978       .  S
O355        C368   1.265   1_565  A
O356       Co364   1.982       .  S
O356        C369   1.255       .  A
O357       Co362   2.023       .  S
O358       Co361   2.058       .  S
O359       Co364   1.961       .  S
O359       C1386   1.258   1_455  A
O360       Co363   1.875       .  S
O360        C367   1.265       .  A
Co361       O365   2.027       .  S
Co362      O1045   1.993   1_465  S
Co364      O1385   2.034   1_455  S
O365       Co702   1.993       .  S
O365       Co874   2.034       .  S
C366        O869   1.258       .  A
C366        C372   1.469       .  S
C367        O864   1.295       .  A
C367        C374   1.454       .  S
C368        C381   1.488       .  S
C370        C502   1.482       .  S
C370        C371   1.411       .  A
C370        C375   1.408       .  A
C371        C372   1.401       .  A
C371        H376   1.084       .  S
C372        C373   1.392       .  A
C373        C374   1.392       .  A
C373        H377   1.085       .  S
C374        C375   1.401       .  A
C375        H378   1.083       .  S
C379        C495   1.482       .  S
C379        C380   1.412       .  A
C379        C384   1.409   1_545  A
C380        C381   1.404       .  A
C380        H385   1.083       .  S
C382        H386   1.074       .  S
C383        C384   1.400       .  A
C384        H387   1.084       .  S
C388        C482   1.489       .  S
C388        C389   1.411       .  A
C388        C393   1.413       .  A
C389        C390   1.397       .  A
C389        H394   1.084       .  S
C391        H395   1.074       .  S
C392        C393   1.406   1_545  A
C393        H396   1.083       .  S
C397        C472   1.485       .  S
C397        C398   1.411       .  A
C397        C402   1.410       .  A
C398        C399   1.406       .  A
C398        H403   1.084       .  S
C399        C862   1.468       .  S
C399        C400   1.391       .  A
C400        C401   1.393       .  A
C400        H404   1.085       .  S
C401        C861   1.457       .  S
C401        C402   1.397       .  A
C402        H405   1.083       .  S
C406        C492   1.489       .  S
C406        C407   1.411   1_545  A
C407        C408   1.399       .  A
C407        H412   1.084       .  S
C408        C423   1.488       .  S
C408        C409   1.410   1_565  A
C409        H413   1.083       .  S
C410        C424   1.496       .  S
C410        C411   1.405       .  A
C411        H414   1.083       .  S
O415       Co435   2.080       .  S
O415        C423   1.302       .  A
O416       Co436   2.017   1_554  S
O416        C424   1.269       .  A
O417       Co437   1.993       .  S
O417        C425   1.263       .  A
O418       Co438   1.880       .  S
O418        C426   1.273       .  A
O419       Co436   2.000   1_554  S
O419        C425   1.273       .  A
O420       Co435   2.064       .  S
O420        C426   1.297       .  A
O421       Co438   2.006       .  S
O421        C424   1.268       .  A
O422       Co437   1.909       .  S
O422        C423   1.271       .  A
C425        C446   1.477       .  S
C426        C448   1.464       .  S
O427       Co435   1.974   1_556  S
O427        C440   1.253       .  A
O428       Co436   1.973       .  S
O428        C441   1.259       .  A
O429       Co437   1.977   1_556  S
O429        C442   1.243       .  A
O430       Co438   2.000   1_556  S
O430        C443   1.267       .  A
O431       Co436   1.988       .  S
O431        C443   1.265       .  A
O432       Co435   2.000   1_556  S
O432        C442   1.252       .  A
O433       Co438   1.966   1_556  S
O433        C440   1.241       .  A
O434       Co437   1.981   1_556  S
O434        C441   1.268       .  A
Co435       O439   2.256   1_554  S
Co436       O439   2.056       .  S
Co437       O439   1.905   1_554  S
Co438       O439   1.903   1_554  S
C440        C464   1.454       .  S
C441        C466   1.455       .  S
C442        C455   1.473       .  S
C443        C457   1.474       .  S
C444        C505   1.487       .  S
C444        C955   1.417       .  A
C444        C449   1.409       .  A
C445       C1464   1.417       .  A
C445        C446   1.408       .  A
C445        H450   1.083       .  S
C446       C1467   1.398       .  A
C447        C956   1.398       .  A
C447        C448   1.391       .  A
C447        H451   1.084       .  S
C448        C449   1.393       .  A
C449        H452   1.083       .  S
C453        C485   1.492       .  S
C453        C454   1.411       .  A
C454        C455   1.404       .  A
C454        H459   1.083       .  S
C455        C456   1.399       .  A
C456        H460   1.084   1_565  S
C457        C458   1.401       .  A
C458        H461   1.083       .  S
C462        C475   1.484       .  S
C462        C463   1.412       .  A
C462        C977   1.410       .  A
C463        C464   1.405       .  A
C463        H468   1.083       .  S
C464        C465   1.385       .  A
C465        C976   1.384       .  A
C465        H469   1.085       .  S
C466       C1485   1.384   1_455  A
C466        C467   1.397       .  A
C467       C1482   1.410   1_455  A
C467        H470   1.084       .  S
C471        C472   1.408       .  A
C471        C476   1.403       .  A
C471        H478   1.083       .  S
C472        C983   1.412       .  A
C473       C1492   1.412   1_455  A
C473        C474   1.392       .  A
C473       Br480   1.924       .  S
C474       C1495   1.404   1_455  A
C474        H479   1.084       .  S
C475        C984   1.404       .  A
C475        C476   1.412       .  A
C476       Br477   1.921       .  S
C481        C482   1.406       .  A
C481        C486   1.398       .  A
C481        H488   1.083       .  S
C483        C484   1.399       .  A
C483       Br490   1.924       .  S
C484        H489   1.083       .  S
C485        C486   1.415       .  A
C486       Br487   1.924       .  S
C491        C492   1.408   1_565  A
C491        C496   1.401       .  A
C491        H498   1.083       .  S
C493        C494   1.398       .  A
C493       Br500   1.923       .  S
C494        H499   1.084       .  S
C495        C496   1.410   1_545  A
C496       Br497   1.922       .  S
C501        C502   1.400       .  A
C501        C506   1.389       .  A
C501        H508   1.084       .  S
C502       C1013   1.412       .  A
C503       C1522   1.412   1_455  A
C503        C504   1.405       .  A
C503       Br510   1.921       .  S
C504       C1525   1.408       .  A
C504        H509   1.083       .  S
C505       C1014   1.408       .  A
C505        C506   1.416       .  A
C506       Br507   1.927       .  S
O511       Co531   1.966       .  S
O511        C859   1.248   1_545  A
O512       Co532   1.981       .  S
O512        C690   1.267       .  A
O513       Co533   2.104       .  S
O513       C1031   1.297       .  A
O514       Co534   2.018       .  S
O514        C522   1.274       .  A
O515       Co532   1.868       .  S
O515        C521   1.262       .  A
O516       Co531   1.959       .  S
O516       C1032   1.255       .  A
O517       Co534   2.048       .  S
O517        C520   1.282       .  A
O518       Co533   2.033       .  S
O518        C519   1.263       .  A
C519        O681   1.248       .  A
C519        C560   1.482       .  S
C520        O852   1.267   1_545  A
C520        C902   1.491       .  S
O523       Co531   2.009       .  S
O523        C536   1.272       .  A
O524       Co532   2.098       .  S
O525       Co533   1.978       .  S
O525        C538   1.265       .  A
O526       Co534   1.982       .  S
O526        C539   1.255   1_545  A
O527       Co532   2.023       .  S
O527        C709   1.261       .  A
O528       Co531   2.058       .  S
O528        C878   1.284       .  A
O529       Co534   1.961       .  S
O530       Co533   1.875       .  S
O530        C537   1.265       .  A
Co531       O535   2.027       .  S
Co533       O705   2.008       .  S
O535      Co1382   1.993   1_545  S
O535       Co873   2.008   1_545  S
O535      Co1044   2.034       .  S
C536       O1039   1.258       .  A
C536        C542   1.469       .  S
C537       O1034   1.295       .  A
C537        C544   1.454       .  S
C538        O698   1.284       .  A
C538        C551   1.488       .  S
C539        O867   1.261       .  A
C539        C893   1.487       .  S
C540        C672   1.482       .  S
C540        C541   1.411       .  A
C540        C545   1.408       .  A
C541        C542   1.401       .  A
C541        H546   1.084       .  S
C542        C543   1.392       .  A
C543        C544   1.392       .  A
C543        H547   1.085       .  S
C544        C545   1.401       .  A
C545        H548   1.083       .  S
C549        C665   1.482       .  S
C549        C550   1.412       .  A
C549        C554   1.409       .  A
C550        C551   1.404       .  A
C550        H555   1.083       .  S
C551        C722   1.408       .  A
C552        C891   1.408   1_565  A
C552        C893   1.404       .  A
C552        H556   1.074       .  S
C553        C709   1.487       .  S
C553        C722   1.404       .  A
C553        C554   1.400       .  A
C554        H557   1.084       .  S
C558        C652   1.489       .  S
C558        C559   1.411       .  A
C558        C563   1.413       .  A
C559        C560   1.397       .  A
C559        H564   1.084       .  S
C560        C731   1.404       .  A
C561        C900   1.404   1_545  A
C561        C902   1.405       .  A
C561        H565   1.074       .  S
C562        C690   1.491       .  S
C562        C731   1.405       .  A
C562        C563   1.406       .  A
C563        H566   1.083       .  S
C567        C642   1.485       .  S
C567        C568   1.411       .  A
C567        C572   1.410       .  A
C568        C569   1.406       .  A
C568        H573   1.084       .  S
C569       C1032   1.468       .  S
C569        C570   1.391       .  A
C570        C571   1.393       .  A
C570        H574   1.085       .  S
C571       C1031   1.457       .  S
C571        C572   1.397       .  A
C572        H575   1.083       .  S
C576        C662   1.489       .  S
C576        C577   1.411       .  A
C576        C751   1.413       .  A
C577        C578   1.399       .  A
C577        H582   1.084       .  S
C578        C593   1.488       .  S
C578        C579   1.410       .  A
C579        C750   1.414       .  A
C579        H583   1.083       .  S
C580        C594   1.496       .  S
C580        C919   1.414       .  A
C580        C581   1.405       .  A
C581        C916   1.413       .  A
C581        H584   1.083       .  S
O585       Co605   2.080       .  S
O585        C593   1.302       .  A
O586       Co606   2.017   1_554  S
O586        C594   1.269       .  A
O587       Co607   1.993       .  S
O587        C595   1.263       .  A
O588       Co608   1.880       .  S
O588        C596   1.273       .  A
O589       Co606   2.000   1_554  S
O589        C595   1.273       .  A
O590       Co605   2.064       .  S
O590        C596   1.297       .  A
O591       Co608   2.006       .  S
O591        C594   1.268       .  A
O592       Co607   1.909       .  S
O592        C593   1.271       .  A
C595        C616   1.477       .  S
C596        C618   1.464       .  S
O597       Co605   1.974   1_556  S
O597        C610   1.253       .  A
O598       Co606   1.973       .  S
O598        C611   1.259       .  A
O599       Co607   1.977   1_556  S
O599        C612   1.243       .  A
O600       Co608   2.000   1_556  S
O600        C613   1.267       .  A
O601       Co606   1.988       .  S
O601        C613   1.265       .  A
O602       Co605   2.000   1_556  S
O602        C612   1.252       .  A
O603       Co608   1.966   1_556  S
O603        C610   1.241       .  A
O604       Co607   1.981   1_556  S
O604        C611   1.268       .  A
Co605       O609   2.256   1_554  S
Co606       O609   2.056       .  S
Co607       O609   1.905   1_554  S
Co608       O609   1.903   1_554  S
C610        C634   1.454       .  S
C611        C636   1.455       .  S
C612        C625   1.473       .  S
C613        C627   1.474       .  S
C614        C675   1.487       .  S
C614       C1125   1.417       .  A
C614        C619   1.409       .  A
C615        C616   1.408       .  A
C615        H620   1.083       .  S
C617       C1126   1.398       .  A
C617        C618   1.391       .  A
C617        H621   1.084       .  S
C618        C619   1.393       .  A
C619        H622   1.083       .  S
C623        C655   1.492       .  S
C623        C624   1.411       .  A
C623        C798   1.411       .  A
C624        C625   1.404       .  A
C624        H629   1.083       .  S
C625        C626   1.399       .  A
C626        C797   1.400       .  A
C626        H630   1.084       .  S
C627        C966   1.400   1_545  A
C627        C628   1.401       .  A
C628        C963   1.411   1_545  A
C628        H631   1.083       .  S
C632        C645   1.484       .  S
C632        C633   1.412       .  A
C632       C1147   1.410       .  A
C633        C634   1.405       .  A
C633        H638   1.083       .  S
C634        C635   1.385       .  A
C635       C1146   1.384       .  A
C635        H639   1.085       .  S
C636        C637   1.397       .  A
C637        H640   1.084       .  S
C641        C642   1.408       .  A
C641        C646   1.403       .  A
C641        H648   1.083       .  S
C642       C1153   1.412       .  A
C643        C644   1.392       .  A
C643       Br650   1.924       .  S
C644        H649   1.084       .  S
C645       C1154   1.404       .  A
C645        C646   1.412       .  A
C646       Br647   1.921       .  S
C651        C652   1.406       .  A
C651        C656   1.398       .  A
C651        H658   1.083       .  S
C652        C823   1.413       .  A
C653        C992   1.413   1_545  A
C653        C654   1.399       .  A
C653       Br660   1.924       .  S
C654        C995   1.408   1_545  A
C654        H659   1.083       .  S
C655        C824   1.408       .  A
C655        C656   1.415       .  A
C656       Br657   1.924       .  S
C661        C662   1.408       .  A
C661        C666   1.401       .  A
C661        H668   1.083       .  S
C662        C833   1.415       .  A
C663       C1002   1.415       .  A
C663        C664   1.398       .  A
C663       Br670   1.923       .  S
C664       C1005   1.403       .  A
C664        H669   1.084       .  S
C665        C834   1.403       .  A
C665        C666   1.410       .  A
C666       Br667   1.922       .  S
C671        C672   1.400       .  A
C671        C676   1.389       .  A
C671        H678   1.084       .  S
C672       C1183   1.412       .  A
C673        C674   1.405       .  A
C673       Br680   1.921       .  S
C674        H679   1.083       .  S
C675       C1184   1.408       .  A
C675        C676   1.416       .  A
C676       Br677   1.927       .  S
O681       Co701   1.966       .  S
O682       Co702   1.981       .  S
O682        C860   1.267       .  A
O683       Co703   2.104       .  S
O683       C1201   1.297       .  A
O684       Co704   2.018       .  S
O684        C692   1.274       .  A
O685       Co702   1.868       .  S
O685        C691   1.262       .  A
O686       Co701   1.959       .  S
O686       C1202   1.255       .  A
O687       Co704   2.048       .  S
O687        C690   1.282       .  A
O688       Co703   2.033       .  S
O688        C689   1.263       .  A
C689        O851   1.248       .  A
C689        C730   1.482       .  S
O693       Co701   2.009       .  S
O693        C706   1.272       .  A
O694       Co702   2.098       .  S
O695       Co703   1.978       .  S
O695        C708   1.265       .  A
O696       Co704   1.982       .  S
O696        C709   1.255       .  A
O697       Co702   2.023       .  S
O697        C879   1.261       .  A
O698       Co701   2.058       .  S
O699       Co704   1.961       .  S
O700       Co703   1.875       .  S
O700        C707   1.265       .  A
Co701       O705   2.027       .  S
Co703       O875   2.008       .  S
O705      Co1042   1.993       .  S
O705      Co1214   2.034       .  S
C706       O1209   1.258       .  A
C706        C712   1.469       .  S
C707       O1204   1.295       .  A
C707        C714   1.454       .  S
C708        O868   1.284       .  A
C708        C721   1.488       .  S
C710        C842   1.482       .  S
C710        C711   1.411       .  A
C710        C715   1.408       .  A
C711        C712   1.401       .  A
C711        H716   1.084       .  S
C712        C713   1.392       .  A
C713        C714   1.392       .  A
C713        H717   1.085       .  S
C714        C715   1.401       .  A
C715        H718   1.083       .  S
C719        C835   1.482       .  S
C719        C720   1.412       .  A
C719        C724   1.409       .  A
C720        C721   1.404       .  A
C720        H725   1.083       .  S
C721        C892   1.408       .  A
C722        H726   1.074       .  S
C723        C879   1.487       .  S
C723        C892   1.404       .  A
C723        C724   1.400       .  A
C724        H727   1.084       .  S
C728        C822   1.489       .  S
C728        C729   1.411       .  A
C728        C733   1.413       .  A
C729        C730   1.397       .  A
C729        H734   1.084       .  S
C730        C901   1.404       .  A
C731        H735   1.074       .  S
C732        C860   1.491       .  S
C732        C901   1.405       .  A
C732        C733   1.406       .  A
C733        H736   1.083       .  S
C737        C812   1.485       .  S
C737        C738   1.411       .  A
C737        C742   1.410       .  A
C738        C739   1.406       .  A
C738        H743   1.084       .  S
C739       C1202   1.468       .  S
C739        C740   1.391       .  A
C740        C741   1.393       .  A
C740        H744   1.085       .  S
C741       C1201   1.457       .  S
C741        C742   1.397       .  A
C742        H745   1.083       .  S
C746        C832   1.489       .  S
C746        C747   1.411       .  A
C746        C921   1.413       .  A
C747        C748   1.399       .  A
C747        H752   1.084       .  S
C748        C763   1.488       .  S
C748        C749   1.410       .  A
C749        C920   1.414       .  A
C749        H753   1.083       .  S
C750        C764   1.496       .  S
C750        C751   1.405       .  A
C751        H754   1.083       .  S
O755       Co775   2.080       .  S
O755        C763   1.302       .  A
O756       Co776   2.017   1_554  S
O756        C764   1.269       .  A
O757       Co777   1.993       .  S
O757        C765   1.263       .  A
O758       Co778   1.880       .  S
O758        C766   1.273       .  A
O759       Co776   2.000   1_554  S
O759        C765   1.273       .  A
O760       Co775   2.064       .  S
O760        C766   1.297       .  A
O761       Co778   2.006       .  S
O761        C764   1.268       .  A
O762       Co777   1.909       .  S
O762        C763   1.271       .  A
C765        C786   1.477       .  S
C766        C788   1.464       .  S
O767       Co775   1.974   1_556  S
O767        C780   1.253       .  A
O768       Co776   1.973       .  S
O768        C781   1.259       .  A
O769       Co777   1.977   1_556  S
O769        C782   1.243       .  A
O770       Co778   2.000   1_556  S
O770        C783   1.267       .  A
O771       Co776   1.988       .  S
O771        C783   1.265       .  A
O772       Co775   2.000   1_556  S
O772        C782   1.252       .  A
O773       Co778   1.966   1_556  S
O773        C780   1.241       .  A
O774       Co777   1.981   1_556  S
O774        C781   1.268       .  A
Co775       O779   2.256   1_554  S
Co776       O779   2.056       .  S
Co777       O779   1.905   1_554  S
Co778       O779   1.903   1_554  S
C780        C804   1.454       .  S
C781        C806   1.455       .  S
C782        C795   1.473       .  S
C783        C797   1.474       .  S
C784        C845   1.487       .  S
C784       C1295   1.417       .  A
C784        C789   1.409       .  A
C785        C786   1.408       .  A
C785        H790   1.083       .  S
C787       C1296   1.398       .  A
C787        C788   1.391       .  A
C787        H791   1.084       .  S
C788        C789   1.393       .  A
C789        H792   1.083       .  S
C793        C825   1.492       .  S
C793        C794   1.411       .  A
C793        C968   1.411       .  A
C794        C795   1.404       .  A
C794        H799   1.083       .  S
C795        C796   1.399       .  A
C796        C967   1.400       .  A
C796        H800   1.084       .  S
C797        C798   1.401       .  A
C798        H801   1.083       .  S
C802        C815   1.484       .  S
C802        C803   1.412       .  A
C802       C1317   1.410       .  A
C803        C804   1.405       .  A
C803        H808   1.083       .  S
C804        C805   1.385       .  A
C805       C1316   1.384       .  A
C805        H809   1.085       .  S
C806        C807   1.397       .  A
C807        H810   1.084       .  S
C811        C812   1.408       .  A
C811        C816   1.403       .  A
C811        H818   1.083       .  S
C812       C1323   1.412       .  A
C813        C814   1.392       .  A
C813       Br820   1.924       .  S
C814        H819   1.084       .  S
C815       C1324   1.404       .  A
C815        C816   1.412       .  A
C816       Br817   1.921       .  S
C821        C822   1.406       .  A
C821        C826   1.398       .  A
C821        H828   1.083       .  S
C822        C993   1.413       .  A
C823        C824   1.399       .  A
C823       Br830   1.924       .  S
C824        H829   1.083       .  S
C825        C994   1.408       .  A
C825        C826   1.415       .  A
C826       Br827   1.924       .  S
C831        C832   1.408       .  A
C831        C836   1.401       .  A
C831        H838   1.083       .  S
C832       C1003   1.415       .  A
C833        C834   1.398       .  A
C833       Br840   1.923       .  S
C834        H839   1.084       .  S
C835       C1004   1.403       .  A
C835        C836   1.410       .  A
C836       Br837   1.922       .  S
C841        C842   1.400       .  A
C841        C846   1.389       .  A
C841        H848   1.084       .  S
C842       C1353   1.412       .  A
C843        C844   1.405       .  A
C843       Br850   1.921       .  S
C844        H849   1.083       .  S
C845       C1354   1.408       .  A
C845        C846   1.416       .  A
C846       Br847   1.927       .  S
O851       Co871   1.966       .  S
O852       Co872   1.981       .  S
O853       Co873   2.104       .  S
O853       C1371   1.297       .  A
O854       Co874   2.018       .  S
O854        C862   1.274       .  A
O855       Co872   1.868       .  S
O855        C861   1.262       .  A
O856       Co871   1.959       .  S
O856       C1372   1.255       .  A
O857       Co874   2.048       .  S
O857        C860   1.282       .  A
O858       Co873   2.033       .  S
O858        C859   1.263       .  A
C859        C900   1.482       .  S
O863       Co871   2.009       .  S
O863        C876   1.272       .  A
O864       Co872   2.098       .  S
O865       Co873   1.978       .  S
O865        C878   1.265   1_565  A
O866       Co874   1.982       .  S
O866        C879   1.255       .  A
O867       Co872   2.023       .  S
O868       Co871   2.058       .  S
O869       Co874   1.961       .  S
O870       Co873   1.875       .  S
O870        C877   1.265       .  A
Co871       O875   2.027       .  S
O875      Co1212   1.993       .  S
O875      Co1384   2.034       .  S
C876       O1379   1.258       .  A
C876        C882   1.469       .  S
C877       O1374   1.295       .  A
C877        C884   1.454       .  S
C878        C891   1.488       .  S
C880       C1012   1.482       .  S
C880        C881   1.411       .  A
C880        C885   1.408       .  A
C881        C882   1.401       .  A
C881        H886   1.084       .  S
C882        C883   1.392       .  A
C883        C884   1.392       .  A
C883        H887   1.085       .  S
C884        C885   1.401       .  A
C885        H888   1.083       .  S
C889       C1005   1.482       .  S
C889        C890   1.412       .  A
C889        C894   1.409   1_545  A
C890        C891   1.404       .  A
C890        H895   1.083       .  S
C892        H896   1.074       .  S
C893        C894   1.400       .  A
C894        H897   1.084       .  S
C898        C992   1.489       .  S
C898        C899   1.411       .  A
C898        C903   1.413       .  A
C899        C900   1.397       .  A
C899        H904   1.084       .  S
C901        H905   1.074       .  S
C902        C903   1.406   1_545  A
C903        H906   1.083       .  S
C907        C982   1.485       .  S
C907        C908   1.411       .  A
C907        C912   1.410       .  A
C908        C909   1.406       .  A
C908        H913   1.084       .  S
C909       C1372   1.468       .  S
C909        C910   1.391       .  A
C910        C911   1.393       .  A
C910        H914   1.085       .  S
C911       C1371   1.457       .  S
C911        C912   1.397       .  A
C912        H915   1.083       .  S
C916       C1002   1.489       .  S
C916        C917   1.411   1_545  A
C917        C918   1.399       .  A
C917        H922   1.084       .  S
C918        C933   1.488       .  S
C918        C919   1.410   1_565  A
C919        H923   1.083       .  S
C920        C934   1.496       .  S
C920        C921   1.405       .  A
C921        H924   1.083       .  S
O925       Co945   2.080       .  S
O925        C933   1.302       .  A
O926       Co946   2.017   1_554  S
O926        C934   1.269       .  A
O927       Co947   1.993       .  S
O927        C935   1.263       .  A
O928       Co948   1.880       .  S
O928        C936   1.273       .  A
O929       Co946   2.000   1_554  S
O929        C935   1.273       .  A
O930       Co945   2.064       .  S
O930        C936   1.297       .  A
O931       Co948   2.006       .  S
O931        C934   1.268       .  A
O932       Co947   1.909       .  S
O932        C933   1.271       .  A
C935        C956   1.477       .  S
C936        C958   1.464       .  S
O937       Co945   1.974   1_556  S
O937        C950   1.253       .  A
O938       Co946   1.973       .  S
O938        C951   1.259       .  A
O939       Co947   1.977   1_556  S
O939        C952   1.243       .  A
O940       Co948   2.000   1_556  S
O940        C953   1.267       .  A
O941       Co946   1.988       .  S
O941        C953   1.265       .  A
O942       Co945   2.000   1_556  S
O942        C952   1.252       .  A
O943       Co948   1.966   1_556  S
O943        C950   1.241       .  A
O944       Co947   1.981   1_556  S
O944        C951   1.268       .  A
Co945       O949   2.256   1_554  S
Co946       O949   2.056       .  S
Co947       O949   1.905   1_554  S
Co948       O949   1.903   1_554  S
C950        C974   1.454       .  S
C951        C976   1.455       .  S
C952        C965   1.473       .  S
C953        C967   1.474       .  S
C954       C1015   1.487       .  S
C954       C1465   1.417       .  A
C954        C959   1.409       .  A
C955        C956   1.408       .  A
C955        H960   1.083       .  S
C957       C1466   1.398       .  A
C957        C958   1.391       .  A
C957        H961   1.084       .  S
C958        C959   1.393       .  A
C959        H962   1.083       .  S
C963        C995   1.492       .  S
C963        C964   1.411       .  A
C964        C965   1.404       .  A
C964        H969   1.083       .  S
C965        C966   1.399       .  A
C966        H970   1.084   1_565  S
C967        C968   1.401       .  A
C968        H971   1.083       .  S
C972        C985   1.484       .  S
C972        C973   1.412       .  A
C972       C1487   1.410       .  A
C973        C974   1.405       .  A
C973        H978   1.083       .  S
C974        C975   1.385       .  A
C975       C1486   1.384       .  A
C975        H979   1.085       .  S
C976        C977   1.397       .  A
C977        H980   1.084       .  S
C981        C982   1.408       .  A
C981        C986   1.403       .  A
C981        H988   1.083       .  S
C982       C1493   1.412       .  A
C983        C984   1.392       .  A
C983       Br990   1.924       .  S
C984        H989   1.084       .  S
C985       C1494   1.404       .  A
C985        C986   1.412       .  A
C986       Br987   1.921       .  S
C991        C992   1.406       .  A
C991        C996   1.398       .  A
C991        H998   1.083       .  S
C993        C994   1.399       .  A
C993      Br1000   1.924       .  S
C994        H999   1.083       .  S
C995        C996   1.415       .  A
C996       Br997   1.924       .  S
C1001      C1002   1.408   1_565  A
C1001      C1006   1.401       .  A
C1001      H1008   1.083       .  S
C1003      C1004   1.398       .  A
C1003     Br1010   1.923       .  S
C1004      H1009   1.084       .  S
C1005      C1006   1.410   1_545  A
C1006     Br1007   1.922       .  S
C1011      C1012   1.400       .  A
C1011      C1016   1.389       .  A
C1011      H1018   1.084       .  S
C1012      C1523   1.412       .  A
C1013      C1014   1.405       .  A
C1013     Br1020   1.921       .  S
C1014      H1019   1.083       .  S
C1015      C1524   1.408       .  A
C1015      C1016   1.416       .  A
C1016     Br1017   1.927       .  S
O1021     Co1041   1.966       .  S
O1021      C1369   1.248   1_545  A
O1022     Co1042   1.981       .  S
O1022      C1200   1.267       .  A
O1023     Co1043   2.104       .  S
O1024     Co1044   2.018       .  S
O1024      C1032   1.274       .  A
O1025     Co1042   1.868       .  S
O1025      C1031   1.262       .  A
O1026     Co1041   1.959       .  S
O1027     Co1044   2.048       .  S
O1027      C1030   1.282       .  A
O1028     Co1043   2.033       .  S
O1028      C1029   1.263       .  A
C1029      O1191   1.248       .  A
C1029      C1070   1.482       .  S
C1030      O1362   1.267   1_545  A
C1030      C1412   1.491       .  S
O1033     Co1041   2.009       .  S
O1033      C1046   1.272       .  A
O1034     Co1042   2.098       .  S
O1035     Co1043   1.978       .  S
O1035      C1048   1.265       .  A
O1036     Co1044   1.982       .  S
O1036      C1049   1.255   1_545  A
O1037     Co1042   2.023       .  S
O1037      C1219   1.261       .  A
O1038     Co1041   2.058       .  S
O1038      C1388   1.284       .  A
O1039     Co1044   1.961       .  S
O1040     Co1043   1.875       .  S
O1040      C1047   1.265       .  A
Co1041     O1045   2.027       .  S
Co1043     O1215   2.008       .  S
O1045     Co1383   2.008   1_545  S
C1046      C1052   1.469       .  S
C1047      C1054   1.454       .  S
C1048      O1208   1.284       .  A
C1048      C1061   1.488       .  S
C1049      O1377   1.261       .  A
C1049      C1403   1.487       .  S
C1050      C1182   1.482       .  S
C1050      C1051   1.411       .  A
C1050      C1055   1.408       .  A
C1051      C1052   1.401       .  A
C1051      H1056   1.084       .  S
C1052      C1053   1.392       .  A
C1053      C1054   1.392       .  A
C1053      H1057   1.085       .  S
C1054      C1055   1.401       .  A
C1055      H1058   1.083       .  S
C1059      C1175   1.482       .  S
C1059      C1060   1.412       .  A
C1059      C1064   1.409       .  A
C1060      C1061   1.404       .  A
C1060      H1065   1.083       .  S
C1061      C1232   1.408       .  A
C1062      C1401   1.408   1_565  A
C1062      C1403   1.404       .  A
C1062      H1066   1.074       .  S
C1063      C1219   1.487       .  S
C1063      C1232   1.404       .  A
C1063      C1064   1.400       .  A
C1064      H1067   1.084       .  S
C1068      C1162   1.489       .  S
C1068      C1069   1.411       .  A
C1068      C1073   1.413       .  A
C1069      C1070   1.397       .  A
C1069      H1074   1.084       .  S
C1070      C1241   1.404       .  A
C1071      C1410   1.404   1_545  A
C1071      C1412   1.405       .  A
C1071      H1075   1.074       .  S
C1072      C1200   1.491       .  S
C1072      C1241   1.405       .  A
C1072      C1073   1.406       .  A
C1073      H1076   1.083       .  S
C1077      C1152   1.485   1_455  S
C1077      C1078   1.411       .  A
C1077      C1082   1.410       .  A
C1078      C1079   1.406       .  A
C1078      H1083   1.084       .  S
C1079      C1080   1.391       .  A
C1080      C1081   1.393       .  A
C1080      H1084   1.085       .  S
C1081      C1082   1.397       .  A
C1082      H1085   1.083   1_455  S
C1086      C1172   1.489       .  S
C1086      C1087   1.411       .  A
C1086      C1261   1.413       .  A
C1087      C1088   1.399       .  A
C1087      H1092   1.084       .  S
C1088      C1103   1.488       .  S
C1088      C1089   1.410       .  A
C1089      C1260   1.414       .  A
C1089      H1093   1.083       .  S
C1090      C1104   1.496       .  S
C1090      C1429   1.414       .  A
C1090      C1091   1.405       .  A
C1091      C1426   1.413       .  A
C1091      H1094   1.083       .  S
O1095     Co1115   2.080       .  S
O1095      C1103   1.302       .  A
O1096     Co1116   2.017   1_554  S
O1096      C1104   1.269       .  A
O1097     Co1117   1.993       .  S
O1097      C1105   1.263       .  A
O1098     Co1118   1.880       .  S
O1098      C1106   1.273       .  A
O1099     Co1116   2.000   1_554  S
O1099      C1105   1.273       .  A
O1100     Co1115   2.064       .  S
O1100      C1106   1.297       .  A
O1101     Co1118   2.006       .  S
O1101      C1104   1.268       .  A
O1102     Co1117   1.909       .  S
O1102      C1103   1.271       .  A
C1105      C1126   1.477       .  S
C1106      C1128   1.464       .  S
O1107     Co1115   1.974   1_556  S
O1107      C1120   1.253       .  A
O1108     Co1116   1.973       .  S
O1108      C1121   1.259       .  A
O1109     Co1117   1.977   1_556  S
O1109      C1122   1.243       .  A
O1110     Co1118   2.000   1_556  S
O1110      C1123   1.267       .  A
O1111     Co1116   1.988       .  S
O1111      C1123   1.265       .  A
O1112     Co1115   2.000   1_556  S
O1112      C1122   1.252       .  A
O1113     Co1118   1.966   1_556  S
O1113      C1120   1.241       .  A
O1114     Co1117   1.981   1_556  S
O1114      C1121   1.268       .  A
Co1115     O1119   2.256   1_554  S
Co1116     O1119   2.056       .  S
Co1117     O1119   1.905   1_554  S
Co1118     O1119   1.903   1_554  S
C1120      C1144   1.454       .  S
C1121      C1146   1.455       .  S
C1122      C1135   1.473       .  S
C1123      C1137   1.474       .  S
C1124      C1185   1.487       .  S
C1124      C1129   1.409   1_455  A
C1125      C1126   1.408       .  A
C1125      H1130   1.083       .  S
C1127      C1128   1.391   1_455  A
C1127      H1131   1.084       .  S
C1128      C1129   1.393       .  A
C1129      H1132   1.083       .  S
C1133      C1165   1.492       .  S
C1133      C1134   1.411       .  A
C1133      C1308   1.411       .  A
C1134      C1135   1.404       .  A
C1134      H1139   1.083       .  S
C1135      C1136   1.399       .  A
C1136      C1307   1.400       .  A
C1136      H1140   1.084       .  S
C1137      C1476   1.400   1_545  A
C1137      C1138   1.401       .  A
C1138      C1473   1.411   1_545  A
C1138      H1141   1.083       .  S
C1142      C1155   1.484       .  S
C1142      C1143   1.412       .  A
C1143      C1144   1.405       .  A
C1143      H1148   1.083       .  S
C1144      C1145   1.385       .  A
C1145      H1149   1.085       .  S
C1146      C1147   1.397       .  A
C1147      H1150   1.084       .  S
C1151      C1152   1.408       .  A
C1151      C1156   1.403       .  A
C1151      H1158   1.083       .  S
C1153      C1154   1.392       .  A
C1153     Br1160   1.924       .  S
C1154      H1159   1.084       .  S
C1155      C1156   1.412       .  A
C1156     Br1157   1.921       .  S
C1161      C1162   1.406       .  A
C1161      C1166   1.398       .  A
C1161      H1168   1.083       .  S
C1162      C1333   1.413       .  A
C1163      C1502   1.413   1_545  A
C1163      C1164   1.399       .  A
C1163     Br1170   1.924       .  S
C1164      C1505   1.408   1_545  A
C1164      H1169   1.083       .  S
C1165      C1334   1.408       .  A
C1165      C1166   1.415       .  A
C1166     Br1167   1.924       .  S
C1171      C1172   1.408       .  A
C1171      C1176   1.401       .  A
C1171      H1178   1.083       .  S
C1172      C1343   1.415       .  A
C1173      C1512   1.415       .  A
C1173      C1174   1.398       .  A
C1173     Br1180   1.923       .  S
C1174      C1515   1.403       .  A
C1174      H1179   1.084       .  S
C1175      C1344   1.403       .  A
C1175      C1176   1.410       .  A
C1176     Br1177   1.922       .  S
C1181      C1182   1.400       .  A
C1181      C1186   1.389       .  A
C1181      H1188   1.084       .  S
C1183      C1184   1.405       .  A
C1183     Br1190   1.921       .  S
C1184      H1189   1.083       .  S
C1185      C1186   1.416   1_455  A
C1186     Br1187   1.927       .  S
O1191     Co1211   1.966       .  S
O1192     Co1212   1.981       .  S
O1192      C1370   1.267       .  A
O1193     Co1213   2.104       .  S
O1194     Co1214   2.018       .  S
O1194      C1202   1.274       .  A
O1195     Co1212   1.868       .  S
O1195      C1201   1.262       .  A
O1196     Co1211   1.959       .  S
O1197     Co1214   2.048       .  S
O1197      C1200   1.282       .  A
O1198     Co1213   2.033       .  S
O1198      C1199   1.263       .  A
C1199      O1361   1.248       .  A
C1199      C1240   1.482       .  S
O1203     Co1211   2.009       .  S
O1203      C1216   1.272       .  A
O1204     Co1212   2.098       .  S
O1205     Co1213   1.978       .  S
O1205      C1218   1.265       .  A
O1206     Co1214   1.982       .  S
O1206      C1219   1.255       .  A
O1207     Co1212   2.023       .  S
O1207      C1389   1.261       .  A
O1208     Co1211   2.058       .  S
O1209     Co1214   1.961       .  S
O1210     Co1213   1.875       .  S
O1210      C1217   1.265       .  A
Co1211     O1215   2.027       .  S
Co1213     O1385   2.008       .  S
C1216      C1222   1.469       .  S
C1217      C1224   1.454       .  S
C1218      O1378   1.284       .  A
C1218      C1231   1.488       .  S
C1220      C1352   1.482       .  S
C1220      C1221   1.411       .  A
C1220      C1225   1.408       .  A
C1221      C1222   1.401       .  A
C1221      H1226   1.084       .  S
C1222      C1223   1.392       .  A
C1223      C1224   1.392       .  A
C1223      H1227   1.085       .  S
C1224      C1225   1.401       .  A
C1225      H1228   1.083       .  S
C1229      C1345   1.482       .  S
C1229      C1230   1.412       .  A
C1229      C1234   1.409       .  A
C1230      C1231   1.404       .  A
C1230      H1235   1.083       .  S
C1231      C1402   1.408       .  A
C1232      H1236   1.074       .  S
C1233      C1389   1.487       .  S
C1233      C1402   1.404       .  A
C1233      C1234   1.400       .  A
C1234      H1237   1.084       .  S
C1238      C1332   1.489       .  S
C1238      C1239   1.411       .  A
C1238      C1243   1.413       .  A
C1239      C1240   1.397       .  A
C1239      H1244   1.084       .  S
C1240      C1411   1.404       .  A
C1241      H1245   1.074       .  S
C1242      C1370   1.491       .  S
C1242      C1411   1.405       .  A
C1242      C1243   1.406       .  A
C1243      H1246   1.083       .  S
C1247      C1322   1.485   1_455  S
C1247      C1248   1.411       .  A
C1247      C1252   1.410       .  A
C1248      C1249   1.406       .  A
C1248      H1253   1.084       .  S
C1249      C1250   1.391       .  A
C1250      C1251   1.393       .  A
C1250      H1254   1.085       .  S
C1251      C1252   1.397       .  A
C1252      H1255   1.083   1_455  S
C1256      C1342   1.489       .  S
C1256      C1257   1.411       .  A
C1256      C1431   1.413       .  A
C1257      C1258   1.399       .  A
C1257      H1262   1.084       .  S
C1258      C1273   1.488       .  S
C1258      C1259   1.410       .  A
C1259      C1430   1.414       .  A
C1259      H1263   1.083       .  S
C1260      C1274   1.496       .  S
C1260      C1261   1.405       .  A
C1261      H1264   1.083       .  S
O1265     Co1285   2.080       .  S
O1265      C1273   1.302       .  A
O1266     Co1286   2.017   1_554  S
O1266      C1274   1.269       .  A
O1267     Co1287   1.993       .  S
O1267      C1275   1.263       .  A
O1268     Co1288   1.880       .  S
O1268      C1276   1.273       .  A
O1269     Co1286   2.000   1_554  S
O1269      C1275   1.273       .  A
O1270     Co1285   2.064       .  S
O1270      C1276   1.297       .  A
O1271     Co1288   2.006       .  S
O1271      C1274   1.268       .  A
O1272     Co1287   1.909       .  S
O1272      C1273   1.271       .  A
C1275      C1296   1.477       .  S
C1276      C1298   1.464       .  S
O1277     Co1285   1.974   1_556  S
O1277      C1290   1.253       .  A
O1278     Co1286   1.973       .  S
O1278      C1291   1.259       .  A
O1279     Co1287   1.977   1_556  S
O1279      C1292   1.243       .  A
O1280     Co1288   2.000   1_556  S
O1280      C1293   1.267       .  A
O1281     Co1286   1.988       .  S
O1281      C1293   1.265       .  A
O1282     Co1285   2.000   1_556  S
O1282      C1292   1.252       .  A
O1283     Co1288   1.966   1_556  S
O1283      C1290   1.241       .  A
O1284     Co1287   1.981   1_556  S
O1284      C1291   1.268       .  A
Co1285     O1289   2.256   1_554  S
Co1286     O1289   2.056       .  S
Co1287     O1289   1.905   1_554  S
Co1288     O1289   1.903   1_554  S
C1290      C1314   1.454       .  S
C1291      C1316   1.455       .  S
C1292      C1305   1.473       .  S
C1293      C1307   1.474       .  S
C1294      C1355   1.487       .  S
C1294      C1299   1.409   1_455  A
C1295      C1296   1.408       .  A
C1295      H1300   1.083       .  S
C1297      C1298   1.391   1_455  A
C1297      H1301   1.084       .  S
C1298      C1299   1.393       .  A
C1299      H1302   1.083       .  S
C1303      C1335   1.492       .  S
C1303      C1304   1.411       .  A
C1303      C1478   1.411       .  A
C1304      C1305   1.404       .  A
C1304      H1309   1.083       .  S
C1305      C1306   1.399       .  A
C1306      C1477   1.400       .  A
C1306      H1310   1.084       .  S
C1307      C1308   1.401       .  A
C1308      H1311   1.083       .  S
C1312      C1325   1.484       .  S
C1312      C1313   1.412       .  A
C1313      C1314   1.405       .  A
C1313      H1318   1.083       .  S
C1314      C1315   1.385       .  A
C1315      H1319   1.085       .  S
C1316      C1317   1.397       .  A
C1317      H1320   1.084       .  S
C1321      C1322   1.408       .  A
C1321      C1326   1.403       .  A
C1321      H1328   1.083       .  S
C1323      C1324   1.392       .  A
C1323     Br1330   1.924       .  S
C1324      H1329   1.084       .  S
C1325      C1326   1.412       .  A
C1326     Br1327   1.921       .  S
C1331      C1332   1.406       .  A
C1331      C1336   1.398       .  A
C1331      H1338   1.083       .  S
C1332      C1503   1.413       .  A
C1333      C1334   1.399       .  A
C1333     Br1340   1.924       .  S
C1334      H1339   1.083       .  S
C1335      C1504   1.408       .  A
C1335      C1336   1.415       .  A
C1336     Br1337   1.924       .  S
C1341      C1342   1.408       .  A
C1341      C1346   1.401       .  A
C1341      H1348   1.083       .  S
C1342      C1513   1.415       .  A
C1343      C1344   1.398       .  A
C1343     Br1350   1.923       .  S
C1344      H1349   1.084       .  S
C1345      C1514   1.403       .  A
C1345      C1346   1.410       .  A
C1346     Br1347   1.922       .  S
C1351      C1352   1.400       .  A
C1351      C1356   1.389       .  A
C1351      H1358   1.084       .  S
C1353      C1354   1.405       .  A
C1353     Br1360   1.921       .  S
C1354      H1359   1.083       .  S
C1355      C1356   1.416   1_455  A
C1356     Br1357   1.927       .  S
O1361     Co1381   1.966       .  S
O1362     Co1382   1.981       .  S
O1363     Co1383   2.104       .  S
O1364     Co1384   2.018       .  S
O1364      C1372   1.274       .  A
O1365     Co1382   1.868       .  S
O1365      C1371   1.262       .  A
O1366     Co1381   1.959       .  S
O1367     Co1384   2.048       .  S
O1367      C1370   1.282       .  A
O1368     Co1383   2.033       .  S
O1368      C1369   1.263       .  A
C1369      C1410   1.482       .  S
O1373     Co1381   2.009       .  S
O1373      C1386   1.272       .  A
O1374     Co1382   2.098       .  S
O1375     Co1383   1.978       .  S
O1375      C1388   1.265   1_565  A
O1376     Co1384   1.982       .  S
O1376      C1389   1.255       .  A
O1377     Co1382   2.023       .  S
O1378     Co1381   2.058       .  S
O1379     Co1384   1.961       .  S
O1380     Co1383   1.875       .  S
O1380      C1387   1.265       .  A
Co1381     O1385   2.027       .  S
C1386      C1392   1.469       .  S
C1387      C1394   1.454       .  S
C1388      C1401   1.488       .  S
C1390      C1522   1.482       .  S
C1390      C1391   1.411       .  A
C1390      C1395   1.408       .  A
C1391      C1392   1.401       .  A
C1391      H1396   1.084       .  S
C1392      C1393   1.392       .  A
C1393      C1394   1.392       .  A
C1393      H1397   1.085       .  S
C1394      C1395   1.401       .  A
C1395      H1398   1.083       .  S
C1399      C1515   1.482       .  S
C1399      C1400   1.412       .  A
C1399      C1404   1.409   1_545  A
C1400      C1401   1.404       .  A
C1400      H1405   1.083       .  S
C1402      H1406   1.074       .  S
C1403      C1404   1.400       .  A
C1404      H1407   1.084       .  S
C1408      C1502   1.489       .  S
C1408      C1409   1.411       .  A
C1408      C1413   1.413       .  A
C1409      C1410   1.397       .  A
C1409      H1414   1.084       .  S
C1411      H1415   1.074       .  S
C1412      C1413   1.406   1_545  A
C1413      H1416   1.083       .  S
C1417      C1492   1.485   1_455  S
C1417      C1418   1.411       .  A
C1417      C1422   1.410       .  A
C1418      C1419   1.406       .  A
C1418      H1423   1.084       .  S
C1419      C1420   1.391       .  A
C1420      C1421   1.393       .  A
C1420      H1424   1.085       .  S
C1421      C1422   1.397       .  A
C1422      H1425   1.083   1_455  S
C1426      C1512   1.489       .  S
C1426      C1427   1.411   1_545  A
C1427      C1428   1.399       .  A
C1427      H1432   1.084       .  S
C1428      C1443   1.488       .  S
C1428      C1429   1.410   1_565  A
C1429      H1433   1.083       .  S
C1430      C1444   1.496       .  S
C1430      C1431   1.405       .  A
C1431      H1434   1.083       .  S
O1435     Co1455   2.080       .  S
O1435      C1443   1.302       .  A
O1436     Co1456   2.017   1_554  S
O1436      C1444   1.269       .  A
O1437     Co1457   1.993       .  S
O1437      C1445   1.263       .  A
O1438     Co1458   1.880       .  S
O1438      C1446   1.273       .  A
O1439     Co1456   2.000   1_554  S
O1439      C1445   1.273       .  A
O1440     Co1455   2.064       .  S
O1440      C1446   1.297       .  A
O1441     Co1458   2.006       .  S
O1441      C1444   1.268       .  A
O1442     Co1457   1.909       .  S
O1442      C1443   1.271       .  A
C1445      C1466   1.477       .  S
C1446      C1468   1.464       .  S
O1447     Co1455   1.974   1_556  S
O1447      C1460   1.253       .  A
O1448     Co1456   1.973       .  S
O1448      C1461   1.259       .  A
O1449     Co1457   1.977   1_556  S
O1449      C1462   1.243       .  A
O1450     Co1458   2.000   1_556  S
O1450      C1463   1.267       .  A
O1451     Co1456   1.988       .  S
O1451      C1463   1.265       .  A
O1452     Co1455   2.000   1_556  S
O1452      C1462   1.252       .  A
O1453     Co1458   1.966   1_556  S
O1453      C1460   1.241       .  A
O1454     Co1457   1.981   1_556  S
O1454      C1461   1.268       .  A
Co1455     O1459   2.256   1_554  S
Co1456     O1459   2.056       .  S
Co1457     O1459   1.905   1_554  S
Co1458     O1459   1.903   1_554  S
C1460      C1484   1.454       .  S
C1461      C1486   1.455       .  S
C1462      C1475   1.473       .  S
C1463      C1477   1.474       .  S
C1464      C1525   1.487       .  S
C1464      C1469   1.409   1_455  A
C1465      C1466   1.408       .  A
C1465      H1470   1.083       .  S
C1467      C1468   1.391   1_455  A
C1467      H1471   1.084       .  S
C1468      C1469   1.393       .  A
C1469      H1472   1.083       .  S
C1473      C1505   1.492       .  S
C1473      C1474   1.411       .  A
C1474      C1475   1.404       .  A
C1474      H1479   1.083       .  S
C1475      C1476   1.399       .  A
C1476      H1480   1.084   1_565  S
C1477      C1478   1.401       .  A
C1478      H1481   1.083       .  S
C1482      C1495   1.484       .  S
C1482      C1483   1.412       .  A
C1483      C1484   1.405       .  A
C1483      H1488   1.083       .  S
C1484      C1485   1.385       .  A
C1485      H1489   1.085       .  S
C1486      C1487   1.397       .  A
C1487      H1490   1.084       .  S
C1491      C1492   1.408       .  A
C1491      C1496   1.403       .  A
C1491      H1498   1.083       .  S
C1493      C1494   1.392       .  A
C1493     Br1500   1.924       .  S
C1494      H1499   1.084       .  S
C1495      C1496   1.412       .  A
C1496     Br1497   1.921       .  S
C1501      C1502   1.406       .  A
C1501      C1506   1.398       .  A
C1501      H1508   1.083       .  S
C1503      C1504   1.399       .  A
C1503     Br1510   1.924       .  S
C1504      H1509   1.083       .  S
C1505      C1506   1.415       .  A
C1506     Br1507   1.924       .  S
C1511      C1512   1.408   1_565  A
C1511      C1516   1.401       .  A
C1511      H1518   1.083       .  S
C1513      C1514   1.398       .  A
C1513     Br1520   1.923       .  S
C1514      H1519   1.084       .  S
C1515      C1516   1.410   1_545  A
C1516     Br1517   1.922       .  S
C1521      C1522   1.400       .  A
C1521      C1526   1.389       .  A
C1521      H1528   1.084       .  S
C1523      C1524   1.405       .  A
C1523     Br1530   1.921       .  S
C1524      H1529   1.083       .  S
C1525      C1526   1.416   1_455  A
C1526     Br1527   1.927       .  S
