geometry optimzed in LAMMPS
_audit_creation_date              2020-11-30 
_audit_creation_method            'lammps2cif' 
_symmetry_space_group_name_H-M    'P1' 
_symmetry_Int_Tables_number       1 
_symmetry_cell_setting            triclinic 
loop_ 
_symmetry_equiv_pos_as_xyz 
  x,y,z 
_cell_length_a                    61.35125635 
_cell_length_b                    23.22710416980483 
_cell_length_c                    37.83414129000158 
_cell_angle_alpha                 89.57613942217786 
_cell_angle_beta                  89.23243058282955 
_cell_angle_gamma                 91.42061068472161 
loop_ 
_atom_site_label 
_atom_site_type_symbol 
_atom_site_fract_x 
_atom_site_fract_y 
_atom_site_fract_z 
_atom_site_charge 
O1          O  0.68909789  0.68415490  0.36047432    -0.81100
O2          O  0.58933114  0.66022061  0.34607837    -0.65700
O3          O  0.64929328  0.69654853  0.32763547    -1.12300
C4          C  0.63795580  0.85148491  0.40664977     1.05800
O5          O  0.58108735  0.75258392  0.34091951    -0.79000
O6          O  0.61025620  0.83847694  0.33024155    -0.66500
Ni7        Ni  0.67120600  0.64065021  0.32828827     1.34900
C8          C  0.62828356  0.84243675  0.31344639     0.84600
O9          O  0.61932291  0.61650139  0.30167876    -0.79500
O10         O  0.65487136  0.59454348  0.29547742    -0.89800
C11         C  0.57580554  0.69944126  0.33973071     0.84100
O12         O  0.66050822  0.59344258  0.36653057    -0.68000
O13         O  0.61764903  0.84385093  0.40114355    -0.87300
C14         C  0.64172607  0.58319556  0.37993402     0.85000
C15         C  0.63476400  0.58831336  0.28747912     1.06500
H16         H  0.62161371  0.71929241  0.39475125     0.38300
O17         O  0.62185417  0.73600298  0.37147298    -1.09900
O18         O  0.64476287  0.81297680  0.32207172    -0.66600
Ni19       Ni  0.65131553  0.75865721  0.36011796     1.26300
O20         O  0.62533910  0.61438662  0.37278348    -0.66800
O21         O  0.65258713  0.82000100  0.39338741    -0.79100
C22         C  0.69526947  0.73583023  0.35406841     0.84400
O23         O  0.68137207  0.77447164  0.34907100    -0.66300
Ni24       Ni  0.60049961  0.79498436  0.37095415     1.27400
Ni25       Ni  0.61982886  0.67483736  0.33741070     1.26100
H26         H  0.64975753  0.71249751  0.30383985     0.38900
C27         C  0.62432054  0.14507970  0.11497948     0.86300
C28         C  0.64099802  0.15644104  0.08549123    -0.53900
C29         C  0.64062305  0.20722602  0.06632576     0.09200
C30         C  0.62038076  0.24393061  0.08114387     0.20200
C31         C  0.62574382  0.19821878  0.13860184    -0.54600
C32         C  0.62402690  0.25028357  0.12201117     0.09400
C33         C  0.60245086  0.15195451  0.09648182    -0.54200
C34         C  0.59893935  0.20400190  0.08051143     0.09900
H35         H  0.65138599  0.12218874  0.08072580     0.14400
H36         H  0.61881067  0.28612068  0.06791704     0.00200
H37         H  0.62720240  0.19447567  0.16710169     0.14700
H38         H  0.58921500  0.12118318  0.09940801     0.14500
C39         C  0.65840663  0.22060350  0.03397534    -0.02700
O40         O  0.82506969  0.33667780  0.11741245    -0.81100
O41         O  0.92507998  0.34761617  0.10452220    -0.65700
O42         O  0.86476103  0.31897980  0.08375505    -1.12300
C43         C  0.86916274  0.14659327  0.14614176     1.05800
O44         O  0.93429219  0.25524815  0.10593629    -0.79000
O45         O  0.90194759  0.20215693  0.06911409    -0.66500
Ni46       Ni  0.84388284  0.37758829  0.08429072     1.34900
C47         C  0.88315239  0.18920905  0.05754260     0.84600
O48         O  0.89657017  0.39896576  0.06090346    -0.79500
O49         O  0.86142902  0.42076145  0.05092849    -0.89800
C50         C  0.93940338  0.30854695  0.10469664     0.84100
O51         O  0.85503089  0.42479138  0.12118613    -0.68000
O52         O  0.88788226  0.14803001  0.13122314    -0.87300
C53         C  0.87301392  0.42853155  0.13723449     0.85000
C54         C  0.88190285  0.42732182  0.04499222     1.06500
H55         H  0.89148835  0.28228882  0.15067436     0.38300
O56         O  0.89045722  0.27033417  0.12631938    -1.09900
O57         O  0.86590334  0.20217788  0.07496897    -0.66600
Ni58       Ni  0.86030171  0.25456704  0.11472032     1.26300
O59         O  0.88838544  0.39260861  0.13226456    -0.66800
O60         O  0.85695188  0.19002166  0.14643191    -0.79100
C61         C  0.81698869  0.28772344  0.10942760     0.84400
O62         O  0.82971967  0.24622369  0.10373139    -0.66300
Ni63       Ni  0.90936483  0.20698283  0.11792248     1.27400
Ni64       Ni  0.89434198  0.33621031  0.09468886     1.26100
H65         H  0.86483304  0.30501406  0.05980282     0.38900
C66         C  0.88276851  0.88209457  0.37279711     0.86300
C67         C  0.86852682  0.85985056  0.34302410    -0.53900
C68         C  0.87322748  0.80744145  0.32792561     0.09200
C69         C  0.89426050  0.78257901  0.34733161     0.20200
C70         C  0.88297163  0.83261899  0.40032284    -0.54600
C71         C  0.88837215  0.77963491  0.38768347     0.09400
C72         C  0.90569435  0.88210990  0.35702546    -0.54200
C73         C  0.91308338  0.83044276  0.34599459     0.09900
H74         H  0.85527160  0.88532667  0.33546534     0.14400
H75         H  0.89972942  0.74190826  0.33751507     0.00200
H76         H  0.88026930  0.84014491  0.42826812     0.14700
H77         H  0.91665873  0.91914136  0.35873882     0.14500
C78         C  0.85694033  0.78318050  0.29703114    -0.02700
O79         O  0.32237618  0.17595325  0.00398437    -0.81100
O80         O  0.42416516  0.18880751  0.00548169    -0.65700
O81         O  0.36355573  0.20135805  0.03172867    -1.12300
C82         C  0.36948421  0.37176849  0.96162742     1.05800
O83         O  0.42695041  0.27640686  0.02583965    -0.79000
O84         O  0.39591796  0.35331077  0.03882272    -0.66500
Ni85       Ni  0.34337564  0.13878137  0.03377459     1.34900
C86         C  0.37746769  0.34885886  0.05422189     0.84600
O87         O  0.39679585  0.12370075  0.04712250    -0.79500
O88         O  0.36253353  0.09848540  0.06438497    -0.89800
C89         C  0.43620589  0.23030639  0.01690754     0.84100
O90         O  0.35444428  0.09670527  0.99457128    -0.68000
O91         O  0.38986236  0.36983590  0.96835310    -0.87300
C92         C  0.37092659  0.10036218  0.97388775     0.85000
C93         C  0.38318506  0.09293889  0.06532840     1.06500
H94         H  0.38917005  0.24754747  0.96484410     0.38300
O95         O  0.38833372  0.25773698  0.98973993    -1.09900
O96         O  0.36220921  0.31629648  0.04279383    -0.66600
Ni97       Ni  0.35841731  0.26676749  0.00212831     1.26300
O98         O  0.38616432  0.13888276  0.97784596    -0.66800
O99         O  0.35530341  0.33378244  0.97224597    -0.79100
C100        C  0.31500183  0.22594141  0.00963811     0.84400
O101        O  0.32795300  0.26883718  0.01376349    -0.66300
Ni102      Ni  0.40785885  0.32106907  0.99665978     1.27400
Ni103      Ni  0.39316137  0.19029994  0.01763352     1.26100
H104        H  0.36419000  0.21467239  0.05576602     0.38900
C105        C  0.38836364  0.67319821  0.23134252     0.86300
C106        C  0.37164609  0.68628157  0.26045185    -0.53900
C107        C  0.37655358  0.73173041  0.28239036     0.09200
C108        C  0.40005541  0.75944262  0.27216358     0.20200
C109        C  0.39190024  0.73233794  0.21239410    -0.54600
C110        C  0.39908157  0.77681584  0.23310905     0.09400
C111        C  0.40900290  0.66383768  0.25212311    -0.54200
C112        C  0.41727961  0.71007706  0.27016518     0.09900
H113        H  0.35649026  0.66173562  0.26300774     0.14400
H114        H  0.40415628  0.79616149  0.28864342     0.00200
H115        H  0.38814369  0.74021553  0.18499080     0.14700
H116        H  0.41662942  0.62234556  0.25190964     0.14500
C117        C  0.36060750  0.74449088  0.31528453    -0.02700
O118        O  0.19041309  0.87469123  0.27339220    -0.81100
O119        O  0.08898520  0.87108133  0.28974480    -0.65700
O120        O  0.14955126  0.84680673  0.30418968    -1.12300
C121        C  0.14034940  0.69499476  0.22294017     1.05800
O122        O  0.08059619  0.77774288  0.29151446    -0.79000
O123        O  0.11271354  0.70309664  0.30377706    -0.66500
Ni124      Ni  0.17010220  0.90969199  0.30579883     1.34900
C125        C  0.13187091  0.69850859  0.31554793     0.84600
O126        O  0.11769382  0.91522863  0.33445946    -0.79500
O127        O  0.15228283  0.94790571  0.34020753    -0.89800
C128        C  0.07534102  0.82996565  0.29516519     0.84100
O129        O  0.15862709  0.95600377  0.26829877    -0.68000
O130        O  0.12054309  0.69489219  0.23335809    -0.87300
C131        C  0.13987380  0.95958583  0.25449033     0.85000
C132        C  0.13220658  0.94594495  0.34960547     1.06500
H133        H  0.12104702  0.82255914  0.23769997     0.38300
O134        O  0.12229600  0.80447946  0.26058823    -1.09900
O135        O  0.14808857  0.72888485  0.30386030    -0.66600
Ni136      Ni  0.15258905  0.78981338  0.26846544     1.26300
O137        O  0.12410013  0.92441497  0.26227409    -0.66800
O138        O  0.15458890  0.73256462  0.23231974    -0.79100
C139        C  0.19698314  0.82320090  0.27592676     0.84400
O140        O  0.18314675  0.78151791  0.27682239    -0.66300
Ni141      Ni  0.10200368  0.74019487  0.26254279     1.27400
Ni142      Ni  0.11953527  0.86151133  0.29663708     1.26100
H143        H  0.15038818  0.82797414  0.32696127     0.38900
C144        C  0.12845448  0.38037197  0.50523686     0.86300
C145        C  0.14535835  0.37365374  0.03604842    -0.53900
C146        C  0.14334406  0.32811210  0.06016040     0.09200
C147        C  0.12134285  0.29403479  0.05157798     0.20200
C148        C  0.12403869  0.32310375  0.48749608    -0.54600
C149        C  0.12122305  0.27660804  0.50956170     0.09400
C150        C  0.10697085  0.38619654  0.03135354    -0.54200
C151        C  0.10235885  0.33949897  0.05216734     0.09900
H152        H  0.15779807  0.40490520  0.03662790     0.14400
H153        H  0.11844699  0.25697318  0.06918718     0.00200
H154        H  0.12372367  0.31962331  0.45889732     0.14700
H155        H  0.09582684  0.42160932  0.02921272     0.14500
C156        C  0.16104824  0.31637859  0.09164776    -0.02700
C157        C  0.16281404  0.37613104  0.11304560     0.01200
C158        C  0.15692349  0.38040729  0.14981165     0.04000
C159        C  0.15098155  0.43353856  0.16450593    -0.12100
C160        C  0.15537538  0.48537797  0.14625288     0.23300
C161        C  0.16558515  0.48395677  0.11307937    -0.12600
C162        C  0.17033870  0.43087126  0.09708059     0.04700
C163        C  0.15260532  0.54174822  0.16420563     0.27100
C164        C  0.13622880  0.57937913  0.15346189    -0.13300
C165        C  0.13328391  0.63165109  0.17115530     0.05200
C166        C  0.14664558  0.64682505  0.19988809    -0.09300
C167        C  0.16380874  0.61064335  0.20948244     0.06000
C168        C  0.16701904  0.55882581  0.19122365    -0.13700
Br169      Br  0.17433325  0.55675335  0.09057330    -0.05700
Br170      Br  0.16357509  0.32214301  0.18463514    -0.00100
Br171      Br  0.11077302  0.68263738  0.15581850     0.00400
Br172      Br  0.19130655  0.51123624  0.20311093    -0.04100
Br173      Br  0.19281491  0.44101937  0.05997397     0.00500
Br174      Br  0.13719748  0.43564473  0.21075047    -0.03400
Br175      Br  0.11795278  0.56021136  0.11405615    -0.04200
Br176      Br  0.18179246  0.62880605  0.24958064    -0.00200
C177        C  0.13631067  0.00970015  0.22975959     0.01200
C178        C  0.13052728  0.00206981  0.19397383     0.04000
C179        C  0.12996515  0.05011482  0.17037727    -0.12100
C180        C  0.13502652  0.10657627  0.18222192     0.23300
C181        C  0.13900976  0.11437368  0.21863452    -0.12600
C182        C  0.13980112  0.06659137  0.24202881     0.04700
C183        C  0.13990393  0.15594544  0.15641454     0.27100
C184        C  0.16088415  0.16182095  0.14190016    -0.13300
C185        C  0.16845538  0.21471499  0.12658505     0.05200
C186        C  0.15380741  0.26059467  0.11666947    -0.09300
C187        C  0.13235670  0.25287727  0.13245860     0.06000
C188        C  0.12568356  0.20184784  0.15165592    -0.13700
Br189      Br  0.14416887  0.19096124  0.23654840    -0.05700
Br190      Br  0.12478014  0.92542366  0.17675114    -0.00100
Br191      Br  0.19944375  0.22358945  0.13262171     0.00400
Br192      Br  0.09691920  0.19441557  0.17292963    -0.04100
Br193      Br  0.14575175  0.07954090  0.29139445     0.00500
Br194      Br  0.12310955  0.03876021  0.12133884    -0.03400
Br195      Br  0.18023608  0.09710163  0.14630419    -0.04200
Br196      Br  0.11279058  0.31510250  0.13587499    -0.00200
C197        C  0.13526540  0.65360556  0.34322428     0.01200
C198        C  0.14101907  0.66876717  0.37798765     0.04000
C199        C  0.14165561  0.62614063  0.40489223    -0.12100
C200        C  0.13742342  0.56761414  0.39702710     0.23300
C201        C  0.13246312  0.55223909  0.36193229    -0.12600
C202        C  0.13114242  0.59493087  0.33532383     0.04700
C203        C  0.13612347  0.52260400  0.42581867     0.27100
C204        C  0.15457413  0.49197673  0.43600719    -0.13300
C205        C  0.15273508  0.44604192  0.46115916     0.05200
C206        C  0.13197625  0.42964944  0.47665160    -0.09300
C207        C  0.11340078  0.45552799  0.46097599     0.06000
C208        C  0.11564083  0.50490830  0.43925780    -0.13700
Br209      Br  0.12655043  0.47245042  0.35066874    -0.05700
Br210      Br  0.14675753  0.74839936  0.38921226    -0.00100
Br211      Br  0.17846220  0.40115920  0.46741246     0.00400
Br212      Br  0.09020836  0.54742902  0.42624892    -0.04100
Br213      Br  0.12354954  0.57263163  0.28786694     0.00500
Br214      Br  0.14682622  0.64815836  0.45308985    -0.03400
Br215      Br  0.18225189  0.51188151  0.41352266    -0.04200
Br216      Br  0.08499749  0.41738080  0.46029902    -0.00200
C217        C  0.12168345  0.21678276  0.49421986     0.01200
C218        C  0.13645646  0.20650527  0.46550064     0.04000
C219        C  0.13511404  0.15521042  0.44649527    -0.12100
C220        C  0.12022113  0.11154548  0.45695324     0.23300
C221        C  0.10740685  0.11766728  0.48762706    -0.12600
C222        C  0.10796248  0.17002205  0.50642110     0.04700
C223        C  0.11861720  0.05942385  0.43494257     0.27100
C224        C  0.10518312  0.05976426  0.40508112    -0.13300
C225        C  0.10886131  0.02093254  0.37741613     0.05200
C226        C  0.12571050  0.98088028  0.38021126    -0.09300
C227        C  0.13722497  0.97609408  0.41214717     0.06000
C228        C  0.13381546  0.01575447  0.43936542    -0.13700
Br229      Br  0.08918711  0.05335637  0.50347121    -0.05700
Br230      Br  0.16077648  0.25824187  0.45342033    -0.00100
Br231      Br  0.09209216  0.02652151  0.33476801     0.00400
Br232      Br  0.15096220  0.01332264  0.48172893    -0.04100
Br233      Br  0.09476692  0.16792470  0.04942082     0.00500
Br234      Br  0.15395915  0.14420776  0.40562620    -0.03400
Br235      Br  0.08276647  0.11625065  0.40144184    -0.04200
Br236      Br  0.15768171  0.91523685  0.41874804    -0.00200
C237        C  0.22102393  0.81199458  0.27807152     0.01200
C238        C  0.23668511  0.84947127  0.26122428     0.04000
C239        C  0.25923363  0.84283281  0.26687636    -0.12100
C240        C  0.26665599  0.79642252  0.28730825     0.23300
C241        C  0.25126337  0.75733062  0.30270571    -0.12600
C242        C  0.22867253  0.76566275  0.29894325     0.04700
C243        C  0.29060981  0.78823480  0.29259306     0.27100
C244        C  0.30395752  0.76927573  0.26498981    -0.13300
C245        C  0.32675917  0.76362758  0.26954720     0.05200
C246        C  0.33605518  0.76196657  0.30493971    -0.09300
C247        C  0.32091947  0.77742789  0.33285116     0.06000
C248        C  0.29976983  0.79683091  0.32574653    -0.13700
Br249      Br  0.26124656  0.69200552  0.32943872    -0.05700
Br250      Br  0.22781738  0.90821655  0.22836780    -0.00100
Br251      Br  0.34215157  0.76549610  0.22457436     0.00400
Br252      Br  0.28241537  0.83311434  0.36216168    -0.04100
Br253      Br  0.20872051  0.71449347  0.32475840     0.00500
Br254      Br  0.28013224  0.89841571  0.24734541    -0.03400
Br255      Br  0.29025523  0.74777658  0.22094766    -0.04200
Br256      Br  0.32588296  0.76598704  0.38234712    -0.00200
C257        C  0.29101415  0.23403810  0.01231205     0.01200
C258        C  0.27833966  0.19972680  0.03621472     0.04000
C259        C  0.25620758  0.21152218  0.04224596    -0.12100
C260        C  0.24650635  0.25828055  0.02502275     0.23300
C261        C  0.25855183  0.28950479  0.99895250    -0.12600
C262        C  0.28081553  0.27789224  0.99285751     0.04700
C263        C  0.22487211  0.27836172  0.03819183     0.27100
C264        C  0.20554661  0.24933997  0.02886083    -0.13300
C265        C  0.18583908  0.25873497  0.04767136     0.05200
C266        C  0.18416873  0.30278258  0.07392625    -0.09300
C267        C  0.20494901  0.32706798  0.08544977     0.06000
C268        C  0.22444706  0.31752720  0.06615712    -0.13700
Br269      Br  0.24437747  0.34792530  0.97180656    -0.05700
Br270      Br  0.29156180  0.13966176  0.06358058    -0.00100
Br271      Br  0.16443665  0.19728740  0.04492642     0.00400
Br272      Br  0.25161224  0.35552652  0.07947638    -0.04100
Br273      Br  0.29725712  0.32183265  0.95769719     0.00500
Br274      Br  0.23926293  0.16424634  0.07512063    -0.03400
Br275      Br  0.20704793  0.19180666  0.99219290    -0.04200
Br276      Br  0.20973391  0.36444269  0.13099411    -0.00200
C277        C  0.36297020  0.42475232  0.43938252     0.01200
C278        C  0.36408881  0.47972726  0.45497632     0.04000
C279        C  0.35942727  0.52902063  0.43499165    -0.12100
C280        C  0.35526130  0.52431431  0.39860979     0.23300
C281        C  0.35327110  0.46915638  0.38328260    -0.12600
C282        C  0.35699348  0.41942761  0.40373343     0.04700
C283        C  0.35643609  0.57715245  0.37596584     0.27100
C284        C  0.33767855  0.60142665  0.36254306    -0.13300
C285        C  0.33941546  0.64785105  0.33838698     0.05200
C286        C  0.35918984  0.68319642  0.33554743    -0.09300
C287        C  0.37828412  0.65522157  0.34848261     0.06000
C288        C  0.37679832  0.60208367  0.36703650    -0.13700
Br289      Br  0.34634438  0.46157802  0.33402112    -0.05700
Br290      Br  0.37638162  0.48752166  0.00261619    -0.00100
Br291      Br  0.31715820  0.64248918  0.30278475     0.00400
Br292      Br  0.40283129  0.56357768  0.38222013    -0.04100
Br293      Br  0.35611758  0.34448653  0.38210793     0.00500
Br294      Br  0.36207695  0.60193414  0.95691032    -0.03400
Br295      Br  0.30944687  0.56838867  0.37569918    -0.04200
Br296      Br  0.40687722  0.68998457  0.34758431    -0.00200
C297        C  0.37284220  0.05860146  0.44373976     0.01200
C298        C  0.35228959  0.02968216  0.93196976     0.04000
C299        C  0.35607357  0.97539646  0.41295230    -0.12100
C300        C  0.37658013  0.95798947  0.40047431     0.23300
C301        C  0.39516233  0.99224649  0.40820163    -0.12600
C302        C  0.39348010  0.04152318  0.43006654     0.04700
C303        C  0.37790571  0.90491957  0.37782563     0.27100
C304        C  0.38184329  0.85120957  0.39300066    -0.13300
C305        C  0.37634517  0.79901527  0.37512865     0.05200
C306        C  0.36956112  0.79916554  0.33808096    -0.09300
C307        C  0.36807426  0.85639043  0.32276563     0.06000
C308        C  0.37164836  0.90734185  0.34258094    -0.13700
Br309      Br  0.42301963  0.97055353  0.38881451    -0.05700
Br310      Br  0.32430858  0.06404500  0.94064613    -0.00100
Br311      Br  0.37411765  0.73520610  0.40864200     0.00400
Br312      Br  0.36692227  0.98314281  0.32235398    -0.04100
Br313      Br  0.41995945  0.08391487  0.44054063     0.00500
Br314      Br  0.32555822  0.94139943  0.89787837    -0.03400
Br315      Br  0.39343811  0.85114339  0.44056320    -0.04200
Br316      Br  0.35790640  0.87118021  0.27576935    -0.00200
C317        C  0.40824830  0.83209035  0.21703508     0.01200
C318        C  0.42080186  0.83084946  0.18559048     0.04000
C319        C  0.41978955  0.87621475  0.16097646    -0.12100
C320        C  0.40653618  0.92317999  0.16851638     0.23300
C321        C  0.39809525  0.92947253  0.20299782    -0.12600
C322        C  0.40150300  0.88631915  0.22831299     0.04700
C323        C  0.40193738  0.96580219  0.14063996     0.27100
C324        C  0.41357495  0.01880028  0.13880645    -0.13300
C325        C  0.40821742  0.06011344  0.11315814     0.05200
C326        C  0.39140088  0.04777275  0.08895737    -0.09300
C327        C  0.38108709  0.99269159  0.08915257     0.06000
C328        C  0.38589178  0.95251648  0.11558425    -0.13700
Br329      Br  0.38236389  0.99691012  0.21616679    -0.05700
Br330      Br  0.44305491  0.77525777  0.18073144    -0.00100
Br331      Br  0.42332977  0.13408406  0.11265184     0.00400
Br332      Br  0.36988568  0.87986987  0.11841692    -0.04100
Br333      Br  0.41074398  0.91265050  0.27373851     0.00500
Br334      Br  0.43618468  0.87406686  0.11719487    -0.03400
Br335      Br  0.43647825  0.03495476  0.17205875    -0.04200
Br336      Br  0.36114877  0.97074428  0.05215135    -0.00200
C337        C  0.37378720  0.38476700  0.08640400     0.01200
C338        C  0.39000869  0.38846037  0.11257215     0.04000
C339        C  0.38895822  0.43047078  0.13928238    -0.12100
C340        C  0.37141753  0.46865943  0.14084534     0.23300
C341        C  0.35426535  0.46193723  0.11655773    -0.12600
C342        C  0.35540496  0.42034137  0.08942511     0.04700
C343        C  0.37319063  0.52132024  0.16364066     0.27100
C344        C  0.36979764  0.51854283  0.20051180    -0.13300
C345        C  0.37508402  0.56652577  0.22215710     0.05200
C346        C  0.38306572  0.61987182  0.20714771    -0.09300
C347        C  0.38854169  0.61884134  0.17012871     0.06000
C348        C  0.38203842  0.57223329  0.14862253    -0.13700
Br349      Br  0.33005934  0.51328317  0.11891764    -0.05700
Br350      Br  0.41389651  0.33575796  0.11200627    -0.00100
Br351      Br  0.37488610  0.55365550  0.27263339     0.00400
Br352      Br  0.38710411  0.57586294  0.09787608    -0.04100
Br353      Br  0.33255716  0.41628670  0.05480309     0.00500
Br354      Br  0.41261680  0.43877547  0.17214961    -0.03400
Br355      Br  0.35852851  0.44751456  0.22130249    -0.04200
Br356      Br  0.41066574  0.66839488  0.14854720    -0.00200
C357        C  0.05278006  0.84120589  0.30762403     0.01200
C358        C  0.04426435  0.81050826  0.33733970     0.04000
C359        C  0.02184045  0.81133928  0.34554214    -0.12100
C360        C  0.00787872  0.84545337  0.32537863     0.23300
C361        C  0.01660419  0.87971252  0.29740644    -0.12600
C362        C  0.03893622  0.87691560  0.28813192     0.04700
C363        C  0.98382848  0.84006449  0.33127980     0.27100
C364        C  0.97154149  0.80154009  0.31063787    -0.13300
C365        C  0.94898150  0.79278174  0.31717220     0.05200
C366        C  0.93796292  0.82467553  0.34358667    -0.09300
C367        C  0.95145384  0.85636533  0.36758051     0.06000
C368        C  0.97377621  0.86694243  0.36008359    -0.13700
Br369      Br  0.99753485  0.92779704  0.27065586    -0.05700
Br370      Br  0.06336870  0.76728981  0.36721971    -0.00100
Br371      Br  0.93581788  0.72770917  0.29500407     0.00400
Br372      Br  0.99074930  0.91852532  0.38928130    -0.04100
Br373      Br  0.04997279  0.91786066  0.24685742     0.00500
Br374      Br  0.00992253  0.76215105  0.38278255    -0.03400
Br375      Br  0.98618733  0.75895602  0.27386312    -0.04200
Br376      Br  0.94075968  0.87729036  0.41410623    -0.00200
C377        C  0.86204041  0.09139475  0.16346493     0.01200
C378        C  0.85722575  0.08930545  0.19997012     0.04000
C379        C  0.85555086  0.03578212  0.21788976    -0.12100
C380        C  0.85841369  0.98355085  0.19946197     0.23300
C381        C  0.86225415  0.98580175  0.16258332    -0.12600
C382        C  0.86351696  0.03928785  0.14462896     0.04700
C383        C  0.85904373  0.92704139  0.21906610     0.27100
C384        C  0.87779898  0.91229236  0.23740838    -0.13300
C385        C  0.87823791  0.86057806  0.25717561     0.05200
C386        C  0.85919641  0.82538667  0.26321930    -0.09300
C387        C  0.84242856  0.83377773  0.23745788     0.06000
C388        C  0.84195765  0.88561958  0.21702754    -0.13700
Br389      Br  0.86767502  0.91592321  0.13696040    -0.05700
Br390      Br  0.85441196  0.15996557  0.22607359    -0.00100
Br391      Br  0.90619187  0.82910034  0.26247179     0.00400
Br392      Br  0.81672767  0.90349949  0.18922834    -0.04100
Br393      Br  0.86682684  0.04121989  0.09382719     0.00500
Br394      Br  0.85098057  0.03528772  0.26824971    -0.03400
Br395      Br  0.90365915  0.96133493  0.23309168    -0.04200
Br396      Br  0.81911083  0.77914703  0.22943937    -0.00200
C397        C  0.87581298  0.47973375  0.16128807     0.01200
C398        C  0.87265965  0.53628639  0.14781974     0.04000
C399        C  0.87350697  0.58486813  0.17022200    -0.12100
C400        C  0.87556766  0.57802359  0.20700451     0.23300
C401        C  0.87856177  0.52165363  0.22065934    -0.12600
C402        C  0.87907020  0.47314708  0.19794020     0.04700
C403        C  0.87035640  0.62757738  0.23136877     0.27100
C404        C  0.88630550  0.66651481  0.24379603    -0.13300
C405        C  0.88200480  0.69749894  0.27526528     0.05200
C406        C  0.86066177  0.71817344  0.28187523    -0.09300
C407        C  0.84389745  0.67824634  0.26861123     0.06000
C408        C  0.84903150  0.63373935  0.24415490    -0.13700
Br409      Br  0.88034369  0.50991479  0.27094151    -0.05700
Br410      Br  0.86513987  0.54817202  0.09898682    -0.00100
Br411      Br  0.89020004  0.64431167  0.31199278     0.00400
Br412      Br  0.82673928  0.58137755  0.22581538    -0.04100
Br413      Br  0.88145359  0.39674651  0.21756909     0.00500
Br414      Br  0.87065147  0.66138728  0.15083788    -0.03400
Br415      Br  0.91505944  0.66547409  0.22336201    -0.04200
Br416      Br  0.81443439  0.66974365  0.28569102    -0.00200
C417        C  0.88154567  0.15494406  0.02382021     0.01200
C418        C  0.86803956  0.15990208  0.50085884     0.04000
C419        C  0.86612658  0.12367943  0.47099021    -0.12100
C420        C  0.88033786  0.07748181  0.46615767     0.23300
C421        C  0.89726032  0.06973350  0.49032688    -0.12600
C422        C  0.89721436  0.11242257  0.01580998     0.04700
C423        C  0.87687197  0.03434704  0.43724829     0.27100
C424        C  0.86215457  0.98736692  0.44239187    -0.13300
C425        C  0.86075657  0.94324190  0.41698931     0.05200
C426        C  0.87610907  0.94112062  0.38882400    -0.09300
C427        C  0.88713602  0.99387051  0.37993533     0.06000
C428        C  0.88835056  0.03911198  0.40475964    -0.13700
Br429      Br  0.91758428  0.00873110  0.48233694    -0.05700
Br430      Br  0.84853826  0.22341518  0.50557673    -0.00100
Br431      Br  0.83543831  0.89304363  0.41680826     0.00400
Br432      Br  0.90639930  0.10647667  0.39487995    -0.04100
Br433      Br  0.92123080  0.09735455  0.04695703     0.00500
Br434      Br  0.84410452  0.13727739  0.43620454    -0.03400
Br435      Br  0.84162369  0.98793578  0.98525080    -0.04200
Br436      Br  0.89620275  0.00947784  0.33168386    -0.00200
C437        C  0.88957135  0.72664799  0.41184753     0.01200
C438        C  0.87305117  0.71407394  0.43807027     0.04000
C439        C  0.87416162  0.66488156  0.46012533    -0.12100
C440        C  0.89103564  0.62580410  0.45571068     0.23300
C441        C  0.90715433  0.63656900  0.42983754    -0.12600
C442        C  0.90715498  0.68779600  0.40958064     0.04700
C443        C  0.89123906  0.57191182  0.47728608     0.27100
C444        C  0.90427160  0.56812703  0.50765349    -0.13300
C445        C  0.90218776  0.51863334  0.02797843     0.05200
C446        C  0.88826956  0.47201583  0.01860908    -0.09300
C447        C  0.87686146  0.47476732  0.48882076     0.06000
C448        C  0.87801952  0.52453180  0.46745297    -0.13700
Br449      Br  0.92913286  0.57950601  0.42193867    -0.05700
Br450      Br  0.84757635  0.75994248  0.44391333    -0.00100
Br451      Br  0.91927383  0.51542186  0.07046477     0.00400
Br452      Br  0.86074711  0.52912137  0.42524774    -0.04100
Br453      Br  0.93345388  0.70573806  0.38404894     0.00500
Br454      Br  0.85197017  0.64884008  0.49597247    -0.03400
Br455      Br  0.91956893  0.63578066  0.02205896    -0.04200
Br456      Br  0.85891542  0.40987328  0.47423683    -0.00200
C457        C  0.96332473  0.32310566  0.10260961     0.01200
C458        C  0.97771924  0.29735825  0.12679652     0.04000
C459        C  0.00054747  0.30075050  0.12107030    -0.12100
C460        C  0.00941324  0.33160242  0.09184354     0.23300
C461        C  0.99519132  0.36036469  0.06894317    -0.12600
C462        C  0.97230351  0.35444228  0.07352265     0.04700
C463        C  0.03346765  0.33073023  0.08374943     0.27100
C464        C  0.04812100  0.36877709  0.10062731    -0.13300
C465        C  0.07051509  0.37047222  0.09102216     0.05200
C466        C  0.07898681  0.33213459  0.06538410    -0.09300
C467        C  0.06361092  0.29834103  0.04622814     0.06000
C468        C  0.04141677  0.29504606  0.05679493    -0.13700
Br469      Br  0.00628555  0.41271599  0.53271631    -0.05700
Br470      Br  0.96622145  0.25606675  0.16771519    -0.00100
Br471      Br  0.08849208  0.43236097  0.10913690     0.00400
Br472      Br  0.02060049  0.25159427  0.53212336    -0.04100
Br473      Br  0.95343423  0.38289409  0.03733687     0.00500
Br474      Br  0.01979809  0.26096850  0.15237965    -0.03400
Br475      Br  0.03710325  0.42109795  0.13561709    -0.04200
Br476      Br  0.06916604  0.27894177  0.49656710    -0.00200
C477        C  0.79291627  0.28112233  0.10475904     0.01200
C478        C  0.78205234  0.32070735  0.08295054     0.04000
C479        C  0.75951146  0.31407566  0.07691645    -0.12100
C480        C  0.74737851  0.26790236  0.09250757     0.23300
C481        C  0.75805227  0.22904569  0.11495129    -0.12600
C482        C  0.78069678  0.23567174  0.12114998     0.04700
C483        C  0.72477370  0.25448655  0.07969223     0.27100
C484        C  0.70648373  0.28385939  0.09227423    -0.13300
C485        C  0.68561998  0.27483758  0.07692401     0.05200
C486        C  0.68226301  0.23406863  0.04910146    -0.09300
C487        C  0.70229885  0.21310953  0.03303462     0.06000
C488        C  0.72255031  0.21940907  0.05006160    -0.13700
Br489      Br  0.74174292  0.16473388  0.13538013    -0.05700
Br490      Br  0.79824123  0.38159456  0.05830443    -0.00100
Br491      Br  0.66419576  0.33175997  0.08713538     0.00400
Br492      Br  0.74521589  0.22552297  0.51152137    -0.04100
Br493      Br  0.79486786  0.18281592  0.15241423     0.00500
Br494      Br  0.74556454  0.36599311  0.04476132    -0.03400
Br495      Br  0.71086106  0.34091175  0.12856823    -0.04200
Br496      Br  0.69827264  0.26714081  0.48396491    -0.00200
C497        C  0.57493997  0.21885863  0.07262753     0.01200
C498        C  0.55762073  0.19765096  0.09540914     0.04000
C499        C  0.53555448  0.19789984  0.08462750    -0.12100
C500        C  0.53000813  0.21905809  0.05101050     0.23300
C501        C  0.54670680  0.24540103  0.03004730    -0.12600
C502        C  0.56827370  0.25116045  0.04279418     0.04700
C503        C  0.50634491  0.22133674  0.04023343     0.27100
C504        C  0.49441668  0.17106036  0.03092960    -0.13300
C505        C  0.47168379  0.17283339  0.02405866     0.05200
C506        C  0.46072021  0.22622948  0.02298560    -0.09300
C507        C  0.47350652  0.27725341  0.03002378     0.06000
C508        C  0.49544616  0.27397365  0.04083047    -0.13700
Br509      Br  0.54001463  0.27536985  0.98385852    -0.05700
Br510      Br  0.56304798  0.17906406  0.14452463    -0.00100
Br511      Br  0.45343044  0.10062206  0.51692689     0.00400
Br512      Br  0.51037752  0.34183704  0.05878220    -0.04100
Br513      Br  0.58373795  0.32070923  0.02901941     0.00500
Br514      Br  0.51258321  0.17120002  0.11661685    -0.03400
Br515      Br  0.50945582  0.09914759  0.02831480    -0.04200
Br516      Br  0.46234908  0.35399047  0.02357478    -0.00200
C517        C  0.83325922  0.78846889  0.31531139     0.01200
C518        C  0.82633825  0.74938328  0.34301027     0.04000
C519        C  0.80395986  0.74412955  0.35332084    -0.12100
C520        C  0.78829396  0.77797704  0.33673159     0.23300
C521        C  0.79541679  0.82461875  0.31584952    -0.12600
C522        C  0.81778125  0.83308798  0.30784545     0.04700
C523        C  0.76434055  0.76657647  0.34181044     0.27100
C524        C  0.75202157  0.74028688  0.31465420    -0.13300
C525        C  0.72946162  0.73051170  0.31904992     0.05200
C526        C  0.71876659  0.74907942  0.34982132    -0.09300
C527        C  0.73062162  0.77832528  0.37609511     0.06000
C528        C  0.75339716  0.78691157  0.37216400    -0.13700
Br529      Br  0.77400996  0.87876053  0.29964253    -0.05700
Br530      Br  0.84566698  0.69314874  0.36182204    -0.00100
Br531      Br  0.71283191  0.69292577  0.28226749     0.00400
Br532      Br  0.76951871  0.82902575  0.40740252    -0.04100
Br533      Br  0.82495299  0.91197781  0.29484596     0.00500
Br534      Br  0.79418563  0.68546395  0.38674123    -0.03400
Br535      Br  0.76521159  0.72101009  0.27004347    -0.04200
Br536      Br  0.71563553  0.80589687  0.41746932    -0.00200
C537        C  0.64491184  0.90185206  0.42780473     0.01200
C538        C  0.63411291  0.91468620  0.45992481     0.04000
C539        C  0.63904825  0.96648359  0.47745958    -0.12100
C540        C  0.65463678  0.00571267  0.46304775     0.23300
C541        C  0.66633396  0.99161667  0.43218688    -0.12600
C542        C  0.66132517  0.94026786  0.41428380     0.04700
C543        C  0.65828441  0.06258081  0.47988901     0.27100
C544        C  0.64969188  0.11187242  0.46488567    -0.13300
C545        C  0.65466296  0.16639616  0.47911863     0.05200
C546        C  0.66177703  0.17174953  0.51534658    -0.09300
C547        C  0.67333112  0.12089616  0.52734555     0.06000
C548        C  0.67165485  0.06791354  0.50917953    -0.13700
Br549      Br  0.68907811  0.04339580  0.41429966    -0.05700
Br550      Br  0.61275367  0.86140376  0.48042882    -0.00100
Br551      Br  0.65659261  0.22473822  0.44231004     0.00400
Br552      Br  0.67724462  0.98474892  0.02203606    -0.04100
Br553      Br  0.67583827  0.92606873  0.36959963     0.00500
Br554      Br  0.62445632  0.98442673  0.52124697    -0.03400
Br555      Br  0.63163772  0.10445802  0.42339259    -0.04200
Br556      Br  0.68937330  0.10014771  0.06297968    -0.00200
C557        C  0.64932208  0.28404392  0.52152333     0.01200
C558        C  0.66005529  0.34037340  0.52455455     0.04000
C559        C  0.65670426  0.38505947  0.49972498    -0.12100
C560        C  0.64038423  0.38034672  0.47448811     0.23300
C561        C  0.62706571  0.32991527  0.47455567    -0.12600
C562        C  0.63085390  0.28299045  0.49843122     0.04700
C563        C  0.63777581  0.42943880  0.44829846     0.27100
C564        C  0.62687189  0.48011770  0.45808074    -0.13300
C565        C  0.62753146  0.52985777  0.43580829     0.05200
C566        C  0.63928196  0.53004707  0.40331955    -0.09300
C567        C  0.64973303  0.47842736  0.39326971     0.06000
C568        C  0.64928932  0.42942716  0.41579122    -0.13700
Br569      Br  0.60481268  0.32357126  0.43913388    -0.05700
Br570      Br  0.67704386  0.36717029  0.56407251    -0.00100
Br571      Br  0.61362599  0.59892709  0.45130615     0.00400
Br572      Br  0.66604614  0.36329131  0.40321775    -0.04100
Br573      Br  0.61145851  0.21554652  0.49517685     0.00500
Br574      Br  0.67515006  0.45448519  0.49929983    -0.03400
Br575      Br  0.61245605  0.48259612  0.50362213    -0.04200
Br576      Br  0.66450404  0.47273236  0.34791907    -0.00200
C577        C  0.62826063  0.08821748  0.13707713     0.01200
C578        C  0.64693230  0.08463376  0.15915740     0.04000
C579        C  0.64784772  0.04347780  0.18689125    -0.12100
C580        C  0.63082238  0.00267587  0.19228628     0.23300
C581        C  0.61407297  0.99964252  0.16718042    -0.12600
C582        C  0.61357004  0.03948420  0.13853318     0.04700
C583        C  0.63098661  0.96188619  0.22355713     0.27100
C584        C  0.63910920  0.90574636  0.22032723    -0.13300
C585        C  0.63782234  0.86645550  0.24918978     0.05200
C586        C  0.62992700  0.88397737  0.28265130    -0.09300
C587        C  0.62298492  0.94153362  0.28631266     0.06000
C588        C  0.62320258  0.97969175  0.25688511    -0.13700
Br589      Br  0.59177162  0.93991111  0.17200493    -0.05700
Br590      Br  0.67283804  0.13075864  0.14986592    -0.00100
Br591      Br  0.64522694  0.78729619  0.24171204     0.00400
Br592      Br  0.61324399  0.05740401  0.26215378    -0.04100
Br593      Br  0.59768916  0.01429062  0.09757829     0.00500
Br594      Br  0.67252585  0.04275320  0.21807832    -0.03400
Br595      Br  0.65289190  0.88352584  0.17660557    -0.04200
Br596      Br  0.61400055  0.96969381  0.33201027    -0.00200
C597        C  0.62436617  0.30511984  0.14376075     0.01200
C598        C  0.60713636  0.34497860  0.14301389     0.04000
C599        C  0.60758496  0.39449063  0.16440425    -0.12100
C600        C  0.62427598  0.40294896  0.18884754     0.23300
C601        C  0.64082834  0.36274286  0.19149218    -0.12600
C602        C  0.64125262  0.31518602  0.16869339     0.04700
C603        C  0.62454689  0.45394773  0.21221316     0.27100
C604        C  0.63794335  0.50209324  0.20331429    -0.13300
C605        C  0.64041872  0.54756045  0.22733374     0.05200
C606        C  0.62943338  0.54509507  0.26035977    -0.09300
C607        C  0.61511559  0.49821685  0.26849983     0.06000
C608        C  0.61273060  0.45261912  0.24443744    -0.13700
Br609      Br  0.66275254  0.37277652  0.22741856    -0.05700
Br610      Br  0.58094662  0.33034143  0.11788434    -0.00100
Br611      Br  0.65890268  0.61334726  0.21487552     0.00400
Br612      Br  0.59415929  0.38681355  0.25623034    -0.04100
Br613      Br  0.66587533  0.26621843  0.17222961     0.00500
Br614      Br  0.58484283  0.45053763  0.16157807    -0.03400
Br615      Br  0.65348390  0.50446415  0.15859835    -0.04200
Br616      Br  0.60010336  0.49394232  0.31368133    -0.00200
C617        C  0.55350814  0.68562720  0.32800085     0.01200
C618        C  0.54706084  0.70723266  0.29493156     0.04000
C619        C  0.52485038  0.71054943  0.28697506    -0.12100
C620        C  0.50891065  0.69042585  0.31161170     0.23300
C621        C  0.51537582  0.66514353  0.34370711    -0.12600
C622        C  0.53769019  0.66319017  0.35204159     0.04700
C623        C  0.48544812  0.69558048  0.30305566     0.27100
C624        C  0.47326021  0.74122725  0.31632639    -0.13300
C625        C  0.45129661  0.74826057  0.30613348     0.05200
C626        C  0.44164869  0.71123368  0.28001029    -0.09300
C627        C  0.45608521  0.67139985  0.26322880     0.06000
C628        C  0.47638873  0.65929190  0.27770047    -0.13700
Br629      Br  0.49356813  0.63543746  0.37664745    -0.05700
Br630      Br  0.56886277  0.73395650  0.26083152    -0.00100
Br631      Br  0.43665206  0.81088954  0.32872871     0.00400
Br632      Br  0.49260244  0.59373135  0.26153001    -0.04100
Br633      Br  0.54653025  0.63387643  0.39729790     0.00500
Br634      Br  0.51624773  0.74559434  0.24298800    -0.03400
Br635      Br  0.48730461  0.79452802  0.34847571    -0.04200
Br636      Br  0.45220079  0.64157934  0.21583488    -0.00200
O637        O  0.68636441  0.67163455  0.85503201    -0.81100
O638        O  0.58584988  0.65475031  0.84385204    -0.65700
O639        O  0.64600771  0.68763550  0.82380662    -1.12300
C640        C  0.63723264  0.84480868  0.90093443     1.05800
O641        O  0.57735052  0.74706733  0.84168448    -0.79000
O642        O  0.60771552  0.82671877  0.82496103    -0.66500
Ni643      Ni  0.66723841  0.62962877  0.82394604     1.34900
C644        C  0.62592585  0.83140869  0.80881564     0.84600
O645        O  0.61486061  0.61057850  0.79859920    -0.79500
O646        O  0.64992893  0.58491765  0.79200476    -0.89800
C647        C  0.57218810  0.69416939  0.83919006     0.84100
O648        O  0.65628074  0.58335633  0.86256252    -0.68000
O649        O  0.61707326  0.83918993  0.89437216    -0.87300
C650        C  0.63745896  0.57571488  0.87649474     0.85000
C651        C  0.62975310  0.58079353  0.78427102     1.06500
H652        H  0.61915128  0.71256038  0.89168812     0.38300
O653        O  0.61939260  0.72913093  0.86836560    -1.09900
O654        O  0.64273224  0.80410174  0.81834342    -0.66600
Ni655      Ni  0.64914269  0.74947560  0.85614527     1.26300
O656        O  0.62151257  0.60834894  0.86965187    -0.66800
O657        O  0.65164120  0.81122658  0.88916504    -0.79100
C658        C  0.69285428  0.72310425  0.84864000     0.84400
O659        O  0.67923317  0.76261575  0.84404167    -0.66300
Ni660      Ni  0.59857732  0.78938529  0.86787501     1.27400
Ni661      Ni  0.61636109  0.66841718  0.83431807     1.26100
H662        H  0.64644765  0.70335171  0.80023085     0.38900
C663        C  0.62073668  0.13362374  0.61185167     0.86300
C664        C  0.63941730  0.15225629  0.58665250    -0.53900
C665        C  0.63895720  0.20606241  0.57088087     0.09200
C666        C  0.61721241  0.23777153  0.58467612     0.20200
C667        C  0.61859980  0.18173305  0.63898055    -0.54600
C668        C  0.61728666  0.23645892  0.62628024     0.09400
C669        C  0.60055168  0.14151778  0.58895208    -0.54200
C670        C  0.59702456  0.19628315  0.57702140     0.09900
H671        H  0.65141180  0.12114101  0.58142160     0.14400
H672        H  0.61571374  0.28183089  0.57384437     0.00200
H673        H  0.61583521  0.17118572  0.66658729     0.14700
H674        H  0.58762772  0.11022244  0.58671619     0.14500
C675        C  0.65751278  0.22672646  0.54123736    -0.02700
O676        O  0.82597368  0.33130527  0.61822631    -0.81100
O677        O  0.92588523  0.34657966  0.60668537    -0.65700
O678        O  0.86598830  0.31670407  0.58470984    -1.12300
C679        C  0.87002567  0.14434658  0.64807935     1.05800
O680        O  0.93553986  0.25452331  0.60982534    -0.79000
O681        O  0.90419803  0.19774410  0.57234411    -0.66500
Ni682      Ni  0.84477903  0.37452762  0.58594458     1.34900
C683        C  0.88556507  0.18546947  0.55983430     0.84600
O684        O  0.89749457  0.39786041  0.56241682    -0.79500
O685        O  0.86225399  0.41980398  0.55340810    -0.89800
C686        C  0.94037398  0.30803143  0.60773469     0.84100
O687        O  0.85546365  0.42103459  0.62362754    -0.68000
O688        O  0.88917471  0.14580710  0.63459593    -0.87300
C689        C  0.87357768  0.42568335  0.63926650     0.85000
C690        C  0.88268375  0.42674355  0.54705926     1.06500
H691        H  0.89190930  0.28104043  0.65236330     0.38300
O692        O  0.89139057  0.26865242  0.62804717    -1.09900
O693        O  0.86804014  0.19971325  0.57602212    -0.66600
Ni694      Ni  0.86154544  0.25199557  0.61532833     1.26300
O695        O  0.88917795  0.39075313  0.63375752    -0.66800
O696        O  0.85779442  0.18764173  0.64709959    -0.79100
C697        C  0.81823223  0.28243445  0.60926008     0.84400
O698        O  0.83141857  0.24243801  0.60273784    -0.66300
Ni699      Ni  0.91066698  0.20538417  0.62142023     1.27400
Ni700      Ni  0.89535329  0.33459183  0.59625349     1.26100
H701        H  0.86621362  0.30314399  0.56063411     0.38900
C702        C  0.87941776  0.88283546  0.87390792     0.86300
C703        C  0.86553209  0.85872710  0.84418626    -0.53900
C704        C  0.87092545  0.80646336  0.82945549     0.09200
C705        C  0.89221071  0.78392593  0.84920366     0.20200
C706        C  0.88003121  0.83390947  0.90177423    -0.54600
C707        C  0.88613182  0.78131643  0.88939655     0.09400
C708        C  0.90240646  0.88438722  0.85837432    -0.54200
C709        C  0.91048307  0.83326341  0.84783415     0.09900
H710        H  0.85199200  0.88285146  0.83641550     0.14400
H711        H  0.89822314  0.74347848  0.83986663     0.00200
H712        H  0.87699342  0.84138439  0.92964214     0.14700
H713        H  0.91290592  0.92239528  0.85993066     0.14500
C714        C  0.85517759  0.78051814  0.79825812    -0.02700
O715        O  0.32097663  0.18083022  0.50096241    -0.81100
O716        O  0.42277625  0.19076533  0.50729667    -0.65700
O717        O  0.36193575  0.20436864  0.53023117    -1.12300
C718        C  0.36981404  0.37409821  0.45986070     1.05800
O719        O  0.42580217  0.27873467  0.52679081    -0.79000
O720        O  0.39478049  0.35609270  0.53798916    -0.66500
Ni721      Ni  0.34162733  0.14199977  0.53075127     1.34900
C722        C  0.37612777  0.35142732  0.55271237     0.84600
O723        O  0.39477939  0.12636333  0.54778354    -0.79500
O724        O  0.36013938  0.10004047  0.56165647    -0.89800
C725        C  0.43477692  0.23169371  0.51924066     0.84100
O726        O  0.35343442  0.10141518  0.49135316    -0.68000
O727        O  0.39006284  0.37175633  0.46722488    -0.87300
C728        C  0.37065779  0.10421605  0.47225340     0.85000
C729        C  0.38071704  0.09454239  0.56435194     1.06500
H730        H  0.38895883  0.24933921  0.46447777     0.38300
O731        O  0.38772288  0.25998033  0.48926656    -1.09900
O732        O  0.36107347  0.31889812  0.54077970    -0.66600
Ni733      Ni  0.35766903  0.26976474  0.50014889     1.26300
O734        O  0.38587449  0.14186693  0.47787769    -0.66800
O735        O  0.35534904  0.33663269  0.47004489    -0.79100
C736        C  0.31393349  0.23115974  0.50690661     0.84400
O737        O  0.32714565  0.27349259  0.51070634    -0.66300
Ni738      Ni  0.40734740  0.32307608  0.49654570     1.27400
Ni739      Ni  0.39179179  0.19299441  0.51789065     1.26100
H740        H  0.36199827  0.21754600  0.55432081     0.38900
C741        C  0.38477740  0.66995873  0.73204117     0.86300
C742        C  0.36773959  0.68349001  0.76042789    -0.53900
C743        C  0.37241021  0.72894365  0.78245288     0.09200
C744        C  0.39602396  0.75669971  0.77277156     0.20200
C745        C  0.38860869  0.72866781  0.71287553    -0.54600
C746        C  0.39542168  0.77362592  0.73344150     0.09400
C747        C  0.40509114  0.66050620  0.75358449    -0.54200
C748        C  0.41326325  0.70701766  0.77155066     0.09900
H749        H  0.35248820  0.65930955  0.76240031     0.14400
H750        H  0.39990728  0.79340066  0.78945984     0.00200
H751        H  0.38507933  0.73590249  0.68529458     0.14700
H752        H  0.41272951  0.61899909  0.75359085     0.14500
C753        C  0.35591734  0.74097256  0.81477317    -0.02700
O754        O  0.18725378  0.86365332  0.76665392    -0.81100
O755        O  0.08752696  0.87624092  0.79626300    -0.65700
O756        O  0.14793478  0.84083676  0.80288630    -1.12300
C757        C  0.13275979  0.68667146  0.72826004     1.05800
O758        O  0.07592799  0.78464978  0.79479408    -0.79000
O759        O  0.10925006  0.71943364  0.81675008    -0.66500
Ni760      Ni  0.17000423  0.90038947  0.80254094     1.34900
C761        C  0.12874594  0.70470903  0.82178358     0.84600
O762        O  0.11960833  0.91533716  0.83691713    -0.79500
O763        O  0.15516026  0.94019213  0.83971445    -0.89800
C764        C  0.07258329  0.83769641  0.80003090     0.84100
O765        O  0.15794438  0.95074637  0.76768855    -0.68000
O766        O  0.11604048  0.68470500  0.74849163    -0.87300
C767        C  0.13898511  0.95626248  0.75502059     0.85000
C768        C  0.13549764  0.94271673  0.85088551     1.06500
H769        H  0.11460112  0.81994484  0.74038993     0.38300
O770        O  0.11747486  0.80300124  0.76318799    -1.09900
O771        O  0.14444615  0.72270648  0.80167901    -0.66600
Ni772      Ni  0.14775764  0.78466097  0.76612641     1.26300
O773        O  0.12285718  0.92267054  0.76377869    -0.66800
O774        O  0.14615569  0.72935279  0.72862580    -0.79100
C775        C  0.19290595  0.81134550  0.76810873     0.84400
O776        O  0.17836487  0.77154926  0.76967565    -0.66300
Ni777      Ni  0.09762673  0.73917168  0.77180031     1.27400
Ni778      Ni  0.11810834  0.86100831  0.79918126     1.26100
H779        H  0.14934090  0.82107039  0.82527592     0.38900
C780        C  0.12729808  0.38206416  0.00822610     0.86300
C781        C  0.14645982  0.36693919  0.53245613    -0.53900
C782        C  0.14209853  0.32482456  0.55804651     0.09200
C783        C  0.11959690  0.29438139  0.54928287     0.20200
C784        C  0.12496654  0.32437810  0.99012902    -0.54600
C785        C  0.12341730  0.27728177  0.01180143     0.09400
C786        C  0.10844660  0.38911076  0.52898860    -0.54200
C787        C  0.10224602  0.34319231  0.54950178     0.09900
H788        H  0.16200126  0.38685595  0.53035293     0.14400
H789        H  0.11572281  0.25834081  0.56724213     0.00200
H790        H  0.12492411  0.32123377  0.96150146     0.14700
H791        H  0.09864222  0.42725447  0.52759533     0.14500
C792        C  0.15873036  0.31343905  0.59055389    -0.02700
C793        C  0.15821191  0.37057318  0.61456097     0.01200
C794        C  0.15665229  0.37070827  0.65288090     0.04000
C795        C  0.15123075  0.42154325  0.67143727    -0.12100
C796        C  0.14606429  0.47191284  0.65304663     0.23300
C797        C  0.14800639  0.47285147  0.61623906    -0.12600
C798        C  0.15801147  0.42732577  0.59877602     0.04700
C799        C  0.14285910  0.52716805  0.67215698     0.27100
C800        C  0.12212140  0.54195994  0.68461650    -0.13300
C801        C  0.11860838  0.59720149  0.69802594     0.05200
C802        C  0.13654450  0.63496591  0.70557928    -0.09300
C803        C  0.15775127  0.61865162  0.69459935     0.06000
C804        C  0.16062231  0.56612361  0.67664760    -0.13700
Br805      Br  0.14070436  0.54132278  0.58998844    -0.05700
Br806      Br  0.16649515  0.30922443  0.68294982    -0.00100
Br807      Br  0.08865700  0.62098073  0.70283718     0.00400
Br808      Br  0.18920547  0.54574267  0.65948436    -0.04100
Br809      Br  0.18124486  0.45781266  0.56797783     0.00500
Br810      Br  0.15165921  0.42430211  0.72260397    -0.03400
Br811      Br  0.09881603  0.48502470  0.68687039    -0.04200
Br812      Br  0.18335959  0.66529320  0.70491099    -0.00200
C813        C  0.13583513  0.00606539  0.72983524     0.01200
C814        C  0.13256884  0.99739699  0.69332442     0.04000
C815        C  0.13241262  0.04494612  0.66931710    -0.12100
C816        C  0.13550889  0.10221821  0.68134505     0.23300
C817        C  0.13775396  0.11080244  0.71817064    -0.12600
C818        C  0.13815165  0.06336337  0.74201873     0.04700
C819        C  0.14004321  0.15206029  0.65555466     0.27100
C820        C  0.16111687  0.16020135  0.64148300    -0.13300
C821        C  0.16765076  0.21253842  0.62426499     0.05200
C822        C  0.15217968  0.25627601  0.61426852    -0.09300
C823        C  0.13089306  0.24718842  0.63029035     0.06000
C824        C  0.12491550  0.19559653  0.64943873    -0.13700
Br825      Br  0.14137614  0.18791600  0.73608730    -0.05700
Br826      Br  0.13015792  0.91982177  0.67590513    -0.00100
Br827      Br  0.19867688  0.22629089  0.62781739     0.00400
Br828      Br  0.09571071  0.18400328  0.66825683    -0.04100
Br829      Br  0.14266522  0.07708112  0.79169584     0.00500
Br830      Br  0.12918018  0.03165686  0.61943708    -0.03400
Br831      Br  0.18196379  0.09968432  0.64885784    -0.04200
Br832      Br  0.11071428  0.30878675  0.63413050    -0.00200
C833        C  0.13278897  0.66199600  0.85059183     0.01200
C834        C  0.12676383  0.67388074  0.88590911     0.04000
C835        C  0.12720123  0.63027068  0.91218207    -0.12100
C836        C  0.13427941  0.57461309  0.90372746     0.23300
C837        C  0.14109264  0.56322591  0.86872008    -0.12600
C838        C  0.14019123  0.60641025  0.84227669     0.04700
C839        C  0.13274101  0.52666775  0.93062169     0.27100
C840        C  0.15140501  0.50725675  0.94780325    -0.13300
C841        C  0.15028543  0.45746549  0.96967434     0.05200
C842        C  0.12973580  0.43181026  0.97994526    -0.09300
C843        C  0.11132759  0.44896709  0.95972812     0.06000
C844        C  0.11290302  0.49608423  0.93581162    -0.13700
Br845      Br  0.15033949  0.48692532  0.85652262    -0.05700
Br846      Br  0.11820002  0.75043724  0.89838971    -0.00100
Br847      Br  0.17705662  0.41635707  0.97392811     0.00400
Br848      Br  0.08793092  0.51802034  0.90849509    -0.04100
Br849      Br  0.14734144  0.58720314  0.79407471     0.00500
Br850      Br  0.11704380  0.64569513  0.95953054    -0.03400
Br851      Br  0.17890720  0.54780320  0.93983495    -0.04200
Br852      Br  0.08424179  0.40452293  0.95962370    -0.00200
C853        C  0.12561950  0.21818048  0.99594525     0.01200
C854        C  0.14093657  0.21142678  0.96750248     0.04000
C855        C  0.14129026  0.16034415  0.94820418    -0.12100
C856        C  0.12783476  0.11345216  0.95840289     0.23300
C857        C  0.11471174  0.11641158  0.98899372    -0.12600
C858        C  0.11336542  0.16852170  0.00783560     0.04700
C859        C  0.12703279  0.06234271  0.93539257     0.27100
C860        C  0.11176237  0.05997333  0.90800384    -0.13300
C861        C  0.11381822  0.01921618  0.88096051     0.05200
C862        C  0.13112366  0.98007831  0.88159730    -0.09300
C863        C  0.14519665  0.97935816  0.91095877     0.06000
C864        C  0.14337972  0.02113910  0.93745010    -0.13700
Br865      Br  0.09848537  0.04826471  0.00441947    -0.05700
Br866      Br  0.16379740  0.26823440  0.95640885    -0.00100
Br867      Br  0.09381478  0.02106852  0.84196841     0.00400
Br868      Br  0.16410335  0.02477366  0.97540523    -0.04100
Br869      Br  0.08972766  0.17376229  0.54827305     0.00500
Br870      Br  0.16011448  0.15459491  0.90689510    -0.03400
Br871      Br  0.08895554  0.11578179  0.90642817    -0.04200
Br872      Br  0.16674741  0.92059794  0.91561269    -0.00200
C873        C  0.21665600  0.79726413  0.76872773     0.01200
C874        C  0.23239707  0.83355952  0.75128205     0.04000
C875        C  0.25488587  0.82660497  0.75707363    -0.12100
C876        C  0.26208659  0.78119722  0.77861743     0.23300
C877        C  0.24657824  0.74194446  0.79355709    -0.12600
C878        C  0.22404284  0.75030915  0.78929561     0.04700
C879        C  0.28586608  0.77502706  0.78623548     0.27100
C880        C  0.30043957  0.75714473  0.76008227    -0.13300
C881        C  0.32314878  0.75586664  0.76652007     0.05200
C882        C  0.33137982  0.75576513  0.80264834    -0.09300
C883        C  0.31507242  0.76954793  0.82914443     0.06000
C884        C  0.29372746  0.78535135  0.82012445    -0.13700
Br885      Br  0.25633453  0.67676203  0.82064265    -0.05700
Br886      Br  0.22354302  0.89127550  0.71769029    -0.00100
Br887      Br  0.33962478  0.76454870  0.72275383     0.00400
Br888      Br  0.27431421  0.81869977  0.85493334    -0.04100
Br889      Br  0.20382592  0.69819827  0.81386973     0.00500
Br890      Br  0.27587183  0.88075513  0.73633582    -0.03400
Br891      Br  0.28872080  0.73141908  0.71538264    -0.04200
Br892      Br  0.31874808  0.76096191  0.87907805    -0.00200
C893        C  0.29005301  0.24024673  0.51090096     0.01200
C894        C  0.27812763  0.20938971  0.53726363     0.04000
C895        C  0.25589883  0.22019800  0.54329877    -0.12100
C896        C  0.24547788  0.26444691  0.52460337     0.23300
C897        C  0.25710174  0.29366800  0.49713939    -0.12600
C898        C  0.27931587  0.28175733  0.49036298     0.04700
C899        C  0.22327445  0.28329932  0.53664108     0.27100
C900        C  0.20450792  0.25099465  0.52823105    -0.13300
C901        C  0.18448272  0.25965953  0.54634911     0.05200
C902        C  0.18202789  0.30456344  0.57209426    -0.09300
C903        C  0.20197374  0.33559692  0.58102227     0.06000
C904        C  0.22167151  0.32705943  0.56185463    -0.13700
Br905      Br  0.24240163  0.34951611  0.46877336    -0.05700
Br906      Br  0.29275427  0.15624326  0.56795843    -0.00100
Br907      Br  0.16293346  0.19853966  0.54154731     0.00400
Br908      Br  0.24770433  0.37259819  0.57209794    -0.04100
Br909      Br  0.29505395  0.32221327  0.45294133     0.00500
Br910      Br  0.23986186  0.17334813  0.57728737    -0.03400
Br911      Br  0.20704450  0.19177197  0.49279549    -0.04200
Br912      Br  0.20652521  0.37492747  0.62564134    -0.00200
C913        C  0.36219557  0.42245448  0.94127906     0.01200
C914        C  0.36488598  0.47798748  0.95568769     0.04000
C915        C  0.35996026  0.52703447  0.93556242    -0.12100
C916        C  0.35391076  0.52162728  0.89985317     0.23300
C917        C  0.35034730  0.46586199  0.88585425    -0.12600
C918        C  0.35413957  0.41647378  0.90675316     0.04700
C919        C  0.35424191  0.57404774  0.87639328     0.27100
C920        C  0.33507319  0.59670808  0.86306241    -0.13300
C921        C  0.33610889  0.64256014  0.83835451     0.05200
C922        C  0.35528858  0.67989759  0.83530506    -0.09300
C923        C  0.37480501  0.65458000  0.84873074     0.06000
C924        C  0.37421878  0.60093837  0.86686525    -0.13700
Br925      Br  0.34139685  0.45658200  0.83755782    -0.05700
Br926      Br  0.37363292  0.48846434  0.50304868    -0.00100
Br927      Br  0.31407085  0.63416905  0.80259937     0.00400
Br928      Br  0.40100951  0.56476850  0.88055801    -0.04100
Br929      Br  0.35019052  0.34060511  0.88709745     0.00500
Br930      Br  0.35943396  0.60348875  0.45716630    -0.03400
Br931      Br  0.30714039  0.56357843  0.87759205    -0.04200
Br932      Br  0.40241052  0.69488369  0.85024977    -0.00200
C933        C  0.37195857  0.05501162  0.94519159     0.01200
C934        C  0.35401753  0.02630788  0.43279448     0.04000
C935        C  0.35264853  0.97929035  0.91121916    -0.12100
C936        C  0.37257200  0.95534284  0.90065933     0.23300
C937        C  0.39221005  0.98238427  0.91136350    -0.12600
C938        C  0.39195944  0.03062148  0.93422672     0.04700
C939        C  0.37243641  0.90146654  0.87849574     0.27100
C940        C  0.37461403  0.84739214  0.89434594    -0.13300
C941        C  0.36929207  0.79560957  0.87592001     0.05200
C942        C  0.36377209  0.79606215  0.83828652    -0.09300
C943        C  0.36271215  0.85341137  0.82309791     0.06000
C944        C  0.36693957  0.90420388  0.84286857    -0.13700
Br945      Br  0.41952501  0.95186897  0.89511835    -0.05700
Br946      Br  0.32471251  0.05227565  0.44198923    -0.00100
Br947      Br  0.36576521  0.73145599  0.90898006     0.00400
Br948      Br  0.36414635  0.98042828  0.82202155    -0.04100
Br949      Br  0.41927785  0.05933097  0.95207808     0.00500
Br950      Br  0.33050933  0.92813492  0.40305509    -0.03400
Br951      Br  0.38343646  0.84627744  0.94358036    -0.04200
Br952      Br  0.35202916  0.86883092  0.77656225    -0.00200
C953        C  0.40364686  0.82955207  0.71679941     0.01200
C954        C  0.41591798  0.82886673  0.68503980     0.04000
C955        C  0.41407096  0.87350294  0.66003477    -0.12100
C956        C  0.40064418  0.92014329  0.66769151     0.23300
C957        C  0.39231703  0.92604372  0.70231380    -0.12600
C958        C  0.39615902  0.88319142  0.72775943     0.04700
C959        C  0.39660727  0.96424077  0.64017616     0.27100
C960        C  0.40936935  0.01551851  0.63834858    -0.13300
C961        C  0.40504893  0.05775658  0.61258002     0.05200
C962        C  0.38815489  0.04801598  0.58805109    -0.09300
C963        C  0.37691361  0.99409435  0.58799231     0.06000
C964        C  0.38048922  0.95348404  0.61483008    -0.13700
Br965      Br  0.37632939  0.99299089  0.71554042    -0.05700
Br966      Br  0.43922885  0.77607381  0.68063399    -0.00100
Br967      Br  0.42201050  0.12895703  0.61203503     0.00400
Br968      Br  0.36277126  0.88367912  0.61767634    -0.04100
Br969      Br  0.40510542  0.90998592  0.77314412     0.00500
Br970      Br  0.42978191  0.87092628  0.61562094    -0.03400
Br971      Br  0.43254583  0.02788373  0.67165387    -0.04200
Br972      Br  0.35777308  0.97357765  0.54960656    -0.00200
C973        C  0.37184006  0.38681167  0.58476147     0.01200
C974        C  0.38755989  0.39034477  0.61168916     0.04000
C975        C  0.38567156  0.43123393  0.63883978    -0.12100
C976        C  0.36796194  0.46887593  0.63968977     0.23300
C977        C  0.35130258  0.46227543  0.61457039    -0.12600
C978        C  0.35309553  0.42116894  0.58733587     0.04700
C979        C  0.36921626  0.52102069  0.66274316     0.27100
C980        C  0.36495783  0.51757429  0.69935719    -0.13300
C981        C  0.37047075  0.56437828  0.72175708     0.05200
C982        C  0.37955071  0.61714584  0.70758580    -0.09300
C983        C  0.38571373  0.61656498  0.67086897     0.06000
C984        C  0.37887055  0.57151495  0.64858391    -0.13700
Br985      Br  0.32686893  0.51292782  0.61608689    -0.05700
Br986      Br  0.41176184  0.33866118  0.61180172    -0.00100
Br987      Br  0.36897977  0.55019909  0.77210361     0.00400
Br988      Br  0.38452770  0.57668822  0.59802932    -0.04100
Br989      Br  0.33047067  0.41569220  0.55234915     0.00500
Br990      Br  0.40830959  0.43850539  0.67362247    -0.03400
Br991      Br  0.35210346  0.44723652  0.71864385    -0.04200
Br992      Br  0.40911618  0.66377094  0.65099382    -0.00200
C993        C  0.05040712  0.85228754  0.81273590     0.01200
C994        C  0.04232591  0.82581285  0.84414968     0.04000
C995        C  0.01993691  0.82616395  0.85260768    -0.12100
C996        C  0.00544833  0.85491954  0.83036911     0.23300
C997        C  0.01371596  0.88547497  0.80047494    -0.12600
C998        C  0.03611460  0.88353514  0.79137274     0.04700
C999        C  0.98143954  0.84684758  0.83602126     0.27100
C1000       C  0.96997681  0.80520561  0.81634506    -0.13300
C1001       C  0.94724614  0.79655695  0.82124755     0.05200
C1002       C  0.93546863  0.82959584  0.84622520    -0.09300
C1003       C  0.94827856  0.86313216  0.87027927     0.06000
C1004       C  0.97056629  0.87520500  0.86344211    -0.13700
Br1005     Br  0.99393483  0.92680635  0.77094716    -0.05700
Br1006     Br  0.06195999  0.78704711  0.87523158    -0.00100
Br1007     Br  0.93458664  0.73121677  0.79859711     0.00400
Br1008     Br  0.98634660  0.93035335  0.89196362    -0.04100
Br1009     Br  0.04675362  0.91900222  0.74808289     0.00500
Br1010     Br  0.00887431  0.78288541  0.89309404    -0.03400
Br1011     Br  0.98604870  0.75775857  0.78370705    -0.04200
Br1012     Br  0.93686884  0.88392118  0.91639311    -0.00200
C1013       C  0.86218875  0.08945015  0.66527108     0.01200
C1014       C  0.85630671  0.08784119  0.70141410     0.04000
C1015       C  0.85268065  0.03447369  0.71899050    -0.12100
C1016       C  0.85572042  0.98190208  0.70102130     0.23300
C1017       C  0.86044729  0.98378152  0.66436900    -0.12600
C1018       C  0.86288912  0.03720030  0.64646021     0.04700
C1019       C  0.85638356  0.92571176  0.72111578     0.27100
C1020       C  0.87506174  0.91224531  0.74010805    -0.13300
C1021       C  0.87597050  0.86007164  0.75934725     0.05200
C1022       C  0.85733995  0.82307670  0.76454158    -0.09300
C1023       C  0.84075375  0.83068742  0.73840609     0.06000
C1024       C  0.83978788  0.88298904  0.71846894    -0.13700
Br1025     Br  0.86516625  0.91331990  0.63897390    -0.05700
Br1026     Br  0.85476791  0.15866162  0.72764277    -0.00100
Br1027     Br  0.90424744  0.83032380  0.76448622     0.00400
Br1028     Br  0.81442819  0.89958509  0.69071850    -0.04100
Br1029     Br  0.86638889  0.03894794  0.59574688     0.00500
Br1030     Br  0.84436464  0.03431142  0.76813333    -0.03400
Br1031     Br  0.90032083  0.96366905  0.73730909    -0.04200
Br1032     Br  0.81858480  0.77365780  0.72872501    -0.00200
C1033       C  0.87634568  0.47686171  0.66339094     0.01200
C1034       C  0.87264558  0.53328004  0.65020253     0.04000
C1035       C  0.87315108  0.58165520  0.67280220    -0.12100
C1036       C  0.87619591  0.57486092  0.70939523     0.23300
C1037       C  0.88039275  0.51883698  0.72259452    -0.12600
C1038       C  0.88063845  0.47040069  0.69975498     0.04700
C1039       C  0.87058720  0.62365163  0.73416578     0.27100
C1040       C  0.88612007  0.66371009  0.74670182    -0.13300
C1041       C  0.88122230  0.69568316  0.77760105     0.05200
C1042       C  0.85963391  0.71550174  0.78330255    -0.09300
C1043       C  0.84333281  0.67408953  0.76999309     0.06000
C1044       C  0.84911530  0.62883882  0.74643961    -0.13700
Br1045     Br  0.88450648  0.50754899  0.77247575    -0.05700
Br1046     Br  0.86551815  0.54524216  0.60122459    -0.00100
Br1047     Br  0.88963647  0.64449735  0.81527106     0.00400
Br1048     Br  0.82749906  0.57403528  0.72843897    -0.04100
Br1049     Br  0.88441611  0.39418968  0.71891161     0.00500
Br1050     Br  0.86844011  0.65781062  0.65407034    -0.03400
Br1051     Br  0.91515019  0.66318131  0.72735998    -0.04200
Br1052     Br  0.81346078  0.66534379  0.78500193    -0.00200
C1053       C  0.88435411  0.15046718  0.52640614     0.01200
C1054       C  0.86420402  0.16251422  0.99981873     0.04000
C1055       C  0.86206379  0.12676676  0.96976389    -0.12100
C1056       C  0.87696712  0.08267808  0.96331214     0.23300
C1057       C  0.89493269  0.07720285  0.98570481    -0.12600
C1058       C  0.89924387  0.10534677  0.52031170     0.04700
C1059       C  0.87295944  0.03838921  0.93523106     0.27100
C1060       C  0.85877119  0.99086819  0.94215308    -0.13300
C1061       C  0.85749906  0.94476376  0.91806944     0.05200
C1062       C  0.87227780  0.94208720  0.88913340    -0.09300
C1063       C  0.88234855  0.99525881  0.87831854     0.06000
C1064       C  0.88344961  0.04230753  0.90187773    -0.13700
Br1065     Br  0.91624905  0.01954535  0.97530031    -0.05700
Br1066     Br  0.84340417  0.22246581  0.00701435    -0.00100
Br1067     Br  0.83276842  0.89265859  0.92044299     0.00400
Br1068     Br  0.89952436  0.11166787  0.88877282    -0.04100
Br1069     Br  0.92169091  0.08775997  0.55387642     0.00500
Br1070     Br  0.83870583  0.13783961  0.93697128    -0.03400
Br1071     Br  0.84488793  0.98142607  0.48527483    -0.04200
Br1072     Br  0.89079536  0.00778995  0.82952773    -0.00200
C1073       C  0.88775039  0.72863751  0.91341180     0.01200
C1074       C  0.87080330  0.71338502  0.93831371     0.04000
C1075       C  0.87203531  0.66310838  0.95930659    -0.12100
C1076       C  0.88964989  0.62625605  0.95526815     0.23300
C1077       C  0.90640635  0.64026373  0.93111186    -0.12600
C1078       C  0.90610132  0.69232573  0.91190380     0.04700
C1079       C  0.89034805  0.57202197  0.97609832     0.27100
C1080       C  0.90280381  0.56914069  0.00710773    -0.13300
C1081       C  0.90319596  0.51812354  0.52915177     0.05200
C1082       C  0.88871223  0.47214715  0.52060241    -0.09300
C1083       C  0.87707902  0.47368666  0.98622423     0.06000
C1084       C  0.87821729  0.52347714  0.96496904    -0.13700
Br1085     Br  0.92981419  0.58682581  0.92433998    -0.05700
Br1086     Br  0.84483299  0.75741722  0.94387259    -0.00100
Br1087     Br  0.92043830  0.51494657  0.57144134     0.00400
Br1088     Br  0.86239506  0.52648818  0.92122580    -0.04100
Br1089     Br  0.93294218  0.71533156  0.88957297     0.00500
Br1090     Br  0.84916413  0.64276510  0.99322175    -0.03400
Br1091     Br  0.92265586  0.63289941  0.52072103    -0.04200
Br1092     Br  0.85995333  0.40771320  0.97098180    -0.00200
C1093       C  0.96416345  0.32397779  0.60518926     0.01200
C1094       C  0.97908927  0.29931147  0.62892957     0.04000
C1095       C  0.00183750  0.30453727  0.62254573    -0.12100
C1096       C  0.01004669  0.33676171  0.59336097     0.23300
C1097       C  0.99524372  0.36485831  0.57115878    -0.12600
C1098       C  0.97248972  0.35677016  0.57621254     0.04700
C1099       C  0.03390666  0.33662200  0.58377855     0.27100
C1100       C  0.04902092  0.37423739  0.60013853    -0.13300
C1101       C  0.07109431  0.37667892  0.58864217     0.05200
C1102       C  0.07880268  0.33887687  0.56233462    -0.09300
C1103       C  0.06299811  0.30620476  0.54354039     0.06000
C1104       C  0.04111234  0.30243723  0.55551516    -0.13700
Br1105     Br  0.00721726  0.40679805  0.03060244    -0.05700
Br1106     Br  0.96846295  0.25754275  0.67024593    -0.00100
Br1107     Br  0.08980927  0.43853092  0.60449012     0.00400
Br1108     Br  0.02140196  0.24341228  0.03293909    -0.04100
Br1109     Br  0.95299747  0.38428021  0.54061347     0.00500
Br1110     Br  0.02183830  0.26489289  0.65261608    -0.03400
Br1111     Br  0.03925884  0.42392181  0.63744582    -0.04200
Br1112     Br  0.07078122  0.26889288  0.00014800    -0.00200
C1113       C  0.79409909  0.27327432  0.60516442     0.01200
C1114       C  0.78105282  0.31884379  0.59280601     0.04000
C1115       C  0.75873286  0.30903240  0.58608300    -0.12100
C1116       C  0.74904865  0.25394426  0.59125797     0.23300
C1117       C  0.76164643  0.20891360  0.60438334    -0.12600
C1118       C  0.78395814  0.21854116  0.61182402     0.04700
C1119       C  0.72598226  0.24349726  0.58034544     0.27100
C1120       C  0.70864752  0.24813700  0.60455548    -0.13300
C1121       C  0.68670627  0.24591386  0.59293629     0.05200
C1122       C  0.68140312  0.24020066  0.55623059    -0.09300
C1123       C  0.69996350  0.24414052  0.53241584     0.06000
C1124       C  0.72144956  0.23900499  0.54443835    -0.13700
Br1125     Br  0.74832251  0.13344846  0.61096379    -0.05700
Br1126     Br  0.79332125  0.39486251  0.58263148    -0.00100
Br1127     Br  0.66610928  0.27140549  0.62650637     0.00400
Br1128     Br  0.74836580  0.18288636  0.03115003    -0.04100
Br1129     Br  0.80001093  0.15664067  0.63266963     0.00500
Br1130     Br  0.74132087  0.37092463  0.56820199    -0.03400
Br1131     Br  0.71548201  0.26046008  0.65377998    -0.04200
Br1132     Br  0.70527485  0.18476200  0.98490643    -0.00200
C1133       C  0.57305597  0.21150531  0.57119216     0.01200
C1134       C  0.55631082  0.18670636  0.59378109     0.04000
C1135       C  0.53416180  0.18698171  0.58400826    -0.12100
C1136       C  0.52804424  0.21217886  0.55183725     0.23300
C1137       C  0.54413460  0.24152180  0.53115399    -0.12600
C1138       C  0.56592509  0.24614972  0.54268498     0.04700
C1139       C  0.50433686  0.21626656  0.54289096     0.27100
C1140       C  0.49216512  0.16799453  0.53119740    -0.13300
C1141       C  0.46946466  0.17164306  0.52512344     0.05200
C1142       C  0.45889463  0.22558861  0.52710995    -0.09300
C1143       C  0.47178310  0.27456340  0.53803714     0.06000
C1144       C  0.49375314  0.26862107  0.54777560    -0.13700
Br1145     Br  0.53619871  0.27719053  0.48707956    -0.05700
Br1146     Br  0.56267101  0.16061353  0.64126099    -0.00100
Br1147     Br  0.45607069  0.10057863  0.01875957     0.00400
Br1148     Br  0.50941978  0.33211172  0.56974271    -0.04100
Br1149     Br  0.58180147  0.31503676  0.52815359     0.00500
Br1150     Br  0.51188627  0.15408524  0.61528768    -0.03400
Br1151     Br  0.50682204  0.09624039  0.52414747    -0.04200
Br1152     Br  0.46085570  0.35223669  0.53955961    -0.00200
C1153       C  0.83123027  0.78400718  0.81583247     0.01200
C1154       C  0.82426840  0.74417993  0.84310954     0.04000
C1155       C  0.80171529  0.73649705  0.85197559    -0.12100
C1156       C  0.78594472  0.76878634  0.83439393     0.23300
C1157       C  0.79288710  0.81590141  0.81374842    -0.12600
C1158       C  0.81528688  0.82689979  0.80742453     0.04700
C1159       C  0.76202701  0.75574541  0.83857045     0.27100
C1160       C  0.75017251  0.72965621  0.81078181    -0.13300
C1161       C  0.72760766  0.71866899  0.81450575     0.05200
C1162       C  0.71646314  0.73589058  0.84521884    -0.09300
C1163       C  0.72787732  0.76488565  0.87206648     0.06000
C1164       C  0.75060714  0.77477416  0.86878576    -0.13700
Br1165     Br  0.77116967  0.86699315  0.79508749    -0.05700
Br1166     Br  0.84397875  0.68972213  0.86278749    -0.00100
Br1167     Br  0.71158799  0.68193983  0.77676277     0.00400
Br1168     Br  0.76593705  0.81782431  0.90451713    -0.04100
Br1169     Br  0.82157126  0.90676803  0.79574132     0.00500
Br1170     Br  0.79196764  0.67514596  0.88358877    -0.03400
Br1171     Br  0.76394612  0.71319056  0.76610397    -0.04200
Br1172     Br  0.71228035  0.79077184  0.91328400    -0.00200
C1173       C  0.64361174  0.89471220  0.92249032     0.01200
C1174       C  0.63112813  0.90699046  0.95301659     0.04000
C1175       C  0.63342864  0.96072362  0.96929169    -0.12100
C1176       C  0.64910629  0.00104854  0.95650505     0.23300
C1177       C  0.66266238  0.98752589  0.92752337    -0.12600
C1178       C  0.65953801  0.93503517  0.90985773     0.04700
C1179       C  0.65260131  0.05587911  0.97530789     0.27100
C1180       C  0.64630072  0.10758569  0.96005348    -0.13300
C1181       C  0.65326880  0.16000671  0.97468993     0.05200
C1182       C  0.65986347  0.16266130  0.01097682    -0.09300
C1183       C  0.66871853  0.10870198  0.02416970     0.06000
C1184       C  0.66495056  0.05662736  0.00600504    -0.13700
Br1185     Br  0.68558998  0.04102706  0.91231031    -0.05700
Br1186     Br  0.61110916  0.84972120  0.97315413    -0.00100
Br1187     Br  0.66018973  0.21892840  0.93955899     0.00400
Br1188     Br  0.68751059  0.00060346  0.52388508    -0.04100
Br1189     Br  0.67597190  0.92113029  0.86699590     0.00500
Br1190     Br  0.61497847  0.97960987  0.00892591    -0.03400
Br1191     Br  0.62868458  0.10678161  0.91808625    -0.04200
Br1192     Br  0.69292690  0.11701824  0.56725580    -0.00200
C1193       C  0.65082111  0.27509817  0.01062712     0.01200
C1194       C  0.66459531  0.32565864  0.00268583     0.04000
C1195       C  0.65613704  0.37609105  0.98776220    -0.12100
C1196       C  0.63658304  0.37384739  0.96940297     0.23300
C1197       C  0.62389395  0.32242058  0.97117360    -0.12600
C1198       C  0.62979228  0.27567774  0.99385404     0.04700
C1199       C  0.63206335  0.42263153  0.94400906     0.27100
C1200       C  0.62446879  0.47603670  0.95642546    -0.13300
C1201       C  0.62574867  0.52615407  0.93458811     0.05200
C1202       C  0.63406420  0.52319520  0.89963894    -0.09300
C1203       C  0.64017177  0.46877947  0.88653238     0.06000
C1204       C  0.63956553  0.41946719  0.90863391    -0.13700
Br1205     Br  0.59889707  0.31577627  0.94075572    -0.05700
Br1206     Br  0.69602083  0.32820478  0.99852327    -0.00100
Br1207     Br  0.61806069  0.59970278  0.95364980     0.00400
Br1208     Br  0.65063393  0.34817574  0.89078485    -0.04100
Br1209     Br  0.61005376  0.20901600  0.99523262     0.00500
Br1210     Br  0.67311433  0.44802948  0.98796622    -0.03400
Br1211     Br  0.61381363  0.48098516  0.00442724    -0.04200
Br1212     Br  0.64948253  0.46076495  0.83780996    -0.00200
C1213       C  0.62437754  0.07554640  0.63282038     0.01200
C1214       C  0.64258339  0.07280457  0.65621840     0.04000
C1215       C  0.64332430  0.03115507  0.68357461    -0.12100
C1216       C  0.62613950  0.99104312  0.68875947     0.23300
C1217       C  0.60913435  0.98912526  0.66424164    -0.12600
C1218       C  0.60896928  0.02801440  0.63510722     0.04700
C1219       C  0.62642372  0.94985304  0.71952977     0.27100
C1220       C  0.63420649  0.89356748  0.71532842    -0.13300
C1221       C  0.63406212  0.85453747  0.74423433     0.05200
C1222       C  0.62733551  0.87247117  0.77819706    -0.09300
C1223       C  0.62067495  0.92995461  0.78268147     0.06000
C1224       C  0.61972630  0.96785299  0.75340724    -0.13700
Br1225     Br  0.58568608  0.93284709  0.67135000    -0.05700
Br1226     Br  0.66741369  0.12505060  0.65223909    -0.00100
Br1227     Br  0.64180828  0.77569504  0.73655966     0.00400
Br1228     Br  0.60935466  0.04496410  0.75962564    -0.04100
Br1229     Br  0.59046316  0.00427205  0.59681731     0.00500
Br1230     Br  0.66776633  0.02959281  0.71537765    -0.03400
Br1231     Br  0.64560649  0.87064416  0.66996897    -0.04200
Br1232     Br  0.61387396  0.95816449  0.82937811    -0.00200
C1233       C  0.61538124  0.28757781  0.65132357     0.01200
C1234       C  0.60110529  0.33335416  0.64407705     0.04000
C1235       C  0.60226893  0.38515569  0.66303134    -0.12100
C1236       C  0.61660173  0.39088684  0.69118633     0.23300
C1237       C  0.62910702  0.34437464  0.70168472    -0.12600
C1238       C  0.62796644  0.29213815  0.68308224     0.04700
C1239       C  0.61742245  0.44437164  0.71192057     0.27100
C1240       C  0.63301382  0.48766400  0.70325970    -0.13300
C1241       C  0.63607703  0.53456300  0.72594564     0.05200
C1242       C  0.62365745  0.53775763  0.75759140    -0.09300
C1243       C  0.60716611  0.49577642  0.76519704     0.06000
C1244       C  0.60401093  0.44926351  0.74217261    -0.13700
Br1245     Br  0.64802455  0.35351822  0.74206143    -0.05700
Br1246     Br  0.57580315  0.32234121  0.61626486    -0.00100
Br1247     Br  0.65751436  0.59399165  0.71358341     0.00400
Br1248     Br  0.58223524  0.39003000  0.75294471    -0.04100
Br1249     Br  0.64363121  0.22958118  0.70435725     0.00500
Br1250     Br  0.58351384  0.44837902  0.65178318    -0.03400
Br1251     Br  0.65087630  0.48074435  0.66116122    -0.04200
Br1252     Br  0.59030187  0.49805678  0.80866759    -0.00200
C1253       C  0.54973564  0.68135650  0.82778082     0.01200
C1254       C  0.54277711  0.70757848  0.79626984     0.04000
C1255       C  0.52047750  0.71048043  0.78899301    -0.12100
C1256       C  0.50491390  0.68632101  0.81290101     0.23300
C1257       C  0.51187504  0.65638861  0.84313954    -0.12600
C1258       C  0.53430577  0.65448142  0.85083909     0.04700
C1259       C  0.48134428  0.69113868  0.80494158     0.27100
C1260       C  0.46924178  0.73701705  0.81817019    -0.13300
C1261       C  0.44748787  0.74541139  0.80716148     0.05200
C1262       C  0.43768829  0.70812021  0.78137262    -0.09300
C1263       C  0.45205710  0.66797299  0.76475726     0.06000
C1264       C  0.47234715  0.65553442  0.77920597    -0.13700
Br1265     Br  0.49058710  0.61889017  0.87396650    -0.05700
Br1266     Br  0.56398032  0.74138214  0.76339637    -0.00100
Br1267     Br  0.43365050  0.81177055  0.82672854     0.00400
Br1268     Br  0.48888482  0.59119035  0.76201670    -0.04100
Br1269     Br  0.54375853  0.61897587  0.89402078     0.00500
Br1270     Br  0.51122184  0.74885823  0.74646581    -0.03400
Br1271     Br  0.48318386  0.78892920  0.85121692    -0.04200
Br1272     Br  0.44830761  0.63951747  0.71712017    -0.00200
loop_ 
_geom_bond_atom_site_label_1 
_geom_bond_atom_site_label_2 
_geom_bond_distance 
_geom_bond_site_symmetry_2 
_ccdc_geom_bond_type 
O1           Ni7   1.926       .  S
O1           C22   1.270       .  A
O2          Ni25   1.917       .  S
O2           C11   1.271       .  A
O3           Ni7   1.892       .  S
O3          Ni25   1.895       .  S
O3          Ni19   1.905       .  S
O3           H26   0.971       .  S
C4           O21   1.272       .  A
C4           O13   1.274       .  A
C4          C537   1.480       .  S
O5          Ni24   1.917       .  S
O5           C11   1.270       .  A
O6          Ni24   1.917       .  S
O6            C8   1.269       .  A
Ni7          O10   1.921       .  S
Ni7          O12   1.908       .  S
C8           O18   1.279       .  A
C8          C586   1.508       .  S
O9          Ni25   1.921       .  S
O9           C15   1.279       .  A
O10          C15   1.279       .  A
C11         C617   1.472       .  S
O12          C14   1.269       .  A
O13         Ni24   1.921       .  S
C14          O20   1.284       .  A
C14         C566   1.517       .  S
C15         C606   1.475       .  S
H16          O17   0.960       .  S
O17         Ni25   1.928       .  S
O17         Ni19   1.912       .  S
O17         Ni24   1.919       .  S
O18         Ni19   1.959       .  S
Ni19         O23   1.911       .  S
Ni19         O21   1.909       .  S
O20         Ni25   1.971       .  S
C22          O23   1.268       .  A
C22         C526   1.473       .  S
C27          C28   1.521       .  S
C27          C33   1.533       .  S
C27          C31   1.531       .  S
C27         C577   1.583       .  S
C28          H35   1.047       .  S
C28          C29   1.381       .  D
C29          C30   1.620       .  S
C29          C39   1.651       .  S
C30          C34   1.591       .  S
C30          C32   1.573       .  S
C30          H36   1.104       .  S
C31          H37   1.086       .  S
C31          C32   1.365       .  D
C32         C597   1.521       .  S
C33          H38   1.072       .  S
C33          C34   1.371       .  D
C34         C497   1.553       .  S
C39         C486   1.603       .  S
C39        C1182   1.612       .  S
C39        C1193   1.619       .  S
O40         Ni46   1.922       .  S
O40          C61   1.269       .  A
O41         Ni64   1.939       .  S
O41          C50   1.279       .  A
O42         Ni46   1.892       .  S
O42         Ni64   1.900       .  S
O42         Ni58   1.906       .  S
O42          H65   0.965       .  S
C43          O60   1.271       .  A
C43          O52   1.272       .  A
C43         C377   1.489       .  S
O44         Ni63   1.921       .  S
O44          C50   1.270       .  A
O45         Ni63   1.911       .  S
O45          C47   1.269       .  A
Ni46         O49   1.910       .  S
Ni46         O51   1.905       .  S
C47          O57   1.283       .  A
C47         C417   1.512       .  S
O48         Ni64   1.933       .  S
O48          C54   1.282       .  A
O49          C54   1.278       .  A
C50         C457   1.499       .  S
O51          C53   1.268       .  A
O52         Ni63   1.936       .  S
C53          O59   1.287       .  A
C53         C397   1.511       .  S
C54         C446   1.477       .  S
H55          O56   0.967       .  S
O56         Ni64   1.944       .  S
O56         Ni58   1.934       .  S
O56         Ni63   1.922       .  S
O57         Ni58   1.973       .  S
Ni58         O62   1.933       .  S
Ni58         O60   1.919       .  S
O59         Ni64   1.977       .  S
C61          O62   1.273       .  A
C61         C477   1.494       .  S
C66          C67   1.520       .  S
C66          C72   1.520       .  S
C66          C70   1.546       .  S
C66         C426   1.565       .  S
C67          H74   1.059       .  S
C67          C68   1.384       .  D
C68          C69   1.611       .  S
C68          C78   1.642       .  S
C69          C73   1.583       .  S
C69          C71   1.565       .  S
C69          H75   1.077       .  S
C70          H76   1.084       .  S
C70          C71   1.370       .  D
C71         C437   1.532       .  S
C72          H77   1.082       .  S
C72          C73   1.360       .  D
C73         C366   1.537       .  S
C78         C386   1.608       .  S
C78         C406   1.639       .  S
C78         C517   1.609       .  S
O79         Ni85   1.938       .  S
O79         C100   1.275       .  A
O80        Ni103   1.952       .  S
O80          C89   1.281       .  A
O81         Ni85   1.886       .  S
O81        Ni103   1.910       .  S
O81         Ni97   1.916       .  S
O81         H104   0.964       .  S
C82          O99   1.282       .  A
C82          O91   1.281       .  A
C82         C913   1.483       .  S
O83        Ni102   1.935   1_554  S
O83          C89   1.270       .  A
O84        Ni102   1.912   1_554  S
O84          C86   1.268       .  A
Ni85         O88   1.917       .  S
Ni85         O90   1.909   1_554  S
C86          O96   1.271       .  A
C86         C337   1.499       .  S
O87        Ni103   1.920       .  S
O87          C93   1.277       .  A
O88          C93   1.278       .  A
C89         C506   1.530       .  S
O90          C92   1.271       .  A
O91        Ni102   1.930       .  S
C92          O98   1.289       .  A
C92         C933   1.520       .  S
C93         C326   1.476       .  S
H94          O95   0.974       .  S
O95        Ni103   1.914   1_556  S
O95         Ni97   1.905   1_556  S
O95        Ni102   1.896       .  S
O96         Ni97   1.941       .  S
Ni97        O101   1.916       .  S
Ni97         O99   1.932   1_554  S
O98        Ni103   1.974   1_556  S
C100        O101   1.271       .  A
C100        C257   1.490       .  S
C105        C106   1.532       .  S
C105        C111   1.519       .  S
C105        C109   1.554       .  S
C105        C346   1.576       .  S
C106        H113   1.081       .  S
C106        C107   1.378       .  D
C107        C108   1.606       .  S
C107        C117   1.607       .  S
C108        C112   1.580       .  S
C108        C110   1.531       .  S
C108        H114   1.087       .  S
C109        H115   1.080       .  S
C109        C110   1.369       .  D
C110        C317   1.509       .  S
C111        H116   1.082       .  S
C111        C112   1.368       .  D
C112        C626   1.545       .  S
C117        C246   1.622       .  S
C117        C286   1.612       .  S
C117        C306   1.629       .  S
O118       Ni124   1.934       .  S
O118        C139   1.275       .  A
O119       Ni142   1.914       .  S
O119        C128   1.268       .  A
O120       Ni124   1.908       .  S
O120       Ni142   1.906       .  S
O120       Ni136   1.909       .  S
O120        H143   0.966       .  S
C121        O138   1.275       .  A
C121        O130   1.272       .  A
C121        C166   1.479       .  S
O122       Ni141   1.929       .  S
O122        C128   1.271       .  A
O123       Ni141   1.909       .  S
O123        C125   1.269       .  A
Ni124       O127   1.925       .  S
Ni124       O129   1.925       .  S
C125        O135   1.278       .  A
C125        C197   1.493       .  S
O126       Ni142   1.910       .  S
O126        C132   1.272       .  A
O127        C132   1.277       .  A
C128        C357   1.486       .  S
O129        C131   1.274       .  A
O130       Ni141   1.914       .  S
C131        O137   1.281       .  A
C131        C177   1.510   1_565  S
C132        C226   1.475       .  S
H133        O134   0.964       .  S
O134       Ni142   1.917       .  S
O134       Ni136   1.924       .  S
O134       Ni141   1.921       .  S
O135       Ni136   1.953       .  S
Ni136       O140   1.920       .  S
Ni136       O138   1.919       .  S
O137       Ni142   1.961       .  S
C139        O140   1.272       .  A
C139        C237   1.507       .  S
C144        C148   1.514       .  S
C144        C781   1.556       .  S
C144        C786   1.530       .  S
C144        C206   1.578       .  S
C145        C780   1.553       .  S
C145        H152   1.041       .  S
C145        C146   1.394       .  D
C146        C147   1.586       .  S
C146        C156   1.649       .  S
C147        C151   1.591       .  S
C147        C785   1.562       .  S
C147        H153   1.094       .  S
C148        H154   1.086       .  S
C148        C149   1.366       .  D
C149        C783   1.564       .  S
C149        C217   1.511       .  S
C150        C780   1.519       .  S
C150        H155   1.086       .  S
C150        C151   1.358       .  D
C151        C466   1.517       .  S
C156        C157   1.614       .  S
C156        C186   1.648       .  S
C156        C266   1.600       .  S
C157        C158   1.437       .  A
C157        C162   1.465       .  A
C158        C159   1.411       .  A
C158       Br170   1.936       .  S
C159        C160   1.402       .  A
C159       Br174   1.935       .  S
C160        C163   1.492       .  S
C160        C161   1.396       .  A
C161        C162   1.413       .  A
C161       Br169   1.948       .  S
C162       Br173   1.963       .  S
C163        C164   1.410       .  A
C163        C168   1.413       .  A
C164        C165   1.405       .  A
C164       Br175   1.926       .  S
C165        C166   1.412       .  A
C165       Br171   1.934       .  S
C166        C167   1.413       .  A
C167        C168   1.409       .  A
C167       Br176   1.931       .  S
C168       Br172   1.933       .  S
C177        C178   1.416       .  A
C177        C182   1.416       .  A
C178        C179   1.425       .  A
C178       Br190   1.926   1_545  S
C179        C180   1.418       .  A
C179       Br194   1.926       .  S
C180        C183   1.522       .  S
C180        C181   1.415       .  A
C181        C182   1.417       .  A
C181       Br189   1.929       .  S
C182       Br193   1.932       .  S
C183        C184   1.396       .  A
C183        C188   1.406       .  A
C184        C185   1.419       .  A
C184       Br195   1.946       .  S
C185        C186   1.461       .  A
C185       Br191   1.924       .  S
C186        C187   1.444       .  A
C187        C188   1.434       .  A
C187       Br196   1.906       .  S
C188       Br192   1.933       .  S
C197        C198   1.411       .  A
C197        C202   1.415       .  A
C198        C199   1.416       .  A
C198       Br210   1.926       .  S
C199        C200   1.412       .  A
C199       Br214   1.926       .  S
C200        C203   1.504       .  S
C200        C201   1.413       .  A
C201        C202   1.412       .  A
C201       Br209   1.931       .  S
C202       Br213   1.932       .  S
C203        C204   1.408       .  A
C203        C208   1.400       .  A
C204        C205   1.426       .  A
C204       Br215   1.933       .  S
C205        C206   1.436       .  A
C205       Br211   1.929       .  S
C206        C207   1.435       .  A
C207        C208   1.409       .  A
C207       Br216   1.936       .  S
C208       Br212   1.934       .  S
C217        C218   1.431       .  A
C217        C222   1.428       .  A
C218        C219   1.397       .  A
C218       Br230   1.940       .  S
C219        C220   1.399       .  A
C219       Br234   1.940       .  S
C220        C223   1.476       .  S
C220        C221   1.403       .  A
C221        C222   1.413       .  A
C221       Br229   1.930       .  S
C222       Br869   1.930       .  S
C223        C224   1.407       .  A
C223        C228   1.405       .  A
C224        C225   1.406       .  A
C224       Br235   1.930       .  S
C225        C226   1.412   1_545  A
C225       Br231   1.931       .  S
C226        C227   1.413       .  A
C227        C228   1.404   1_565  A
C227       Br236   1.930       .  S
C228       Br232   1.930       .  S
Br233       C858   1.931       .  S
C237        C238   1.422       .  A
C237        C242   1.423       .  A
C238        C239   1.415       .  A
C238       Br250   1.932       .  S
C239        C240   1.410       .  A
C239       Br254   1.933       .  S
C240        C243   1.502       .  S
C240        C241   1.411       .  A
C241        C242   1.413       .  A
C241       Br249   1.934       .  S
C242       Br253   1.935       .  S
C243        C244   1.399       .  A
C243        C248   1.395       .  A
C244        C245   1.421       .  A
C244       Br255   1.939       .  S
C245        C246   1.463       .  A
C245       Br251   1.935       .  S
C246        C247   1.450       .  A
C247        C248   1.413       .  A
C247       Br256   1.919       .  S
C248       Br252   1.940       .  S
C257        C258   1.413       .  A
C257        C262   1.416   1_554  A
C258        C259   1.408       .  A
C258       Br270   1.932       .  S
C259        C260   1.411       .  A
C259       Br274   1.929       .  S
C260        C263   1.498       .  S
C260        C261   1.410   1_554  A
C261        C262   1.415       .  A
C261       Br269   1.927       .  S
C262       Br273   1.929       .  S
C263        C264   1.400       .  A
C263        C268   1.401       .  A
C264        C265   1.417       .  A
C264       Br275   1.936   1_554  S
C265        C266   1.436       .  A
C265       Br271   1.920       .  S
C266        C267   1.455       .  A
C267        C268   1.416       .  A
C267       Br276   1.958       .  S
C268       Br272   1.941       .  S
C277        C718   1.477       .  S
C277        C278   1.411       .  A
C277        C282   1.408       .  A
C278        C279   1.405       .  A
C278       Br926   1.929       .  S
C279        C280   1.408       .  A
C279       Br930   1.928       .  S
C280        C283   1.491       .  S
C280        C281   1.413       .  A
C281        C282   1.411       .  A
C281       Br289   1.926       .  S
C282       Br293   1.929       .  S
C283        C284   1.394       .  A
C283        C288   1.400       .  A
C284        C285   1.409       .  A
C284       Br295   1.934       .  S
C285        C286   1.450       .  A
C285       Br291   1.933       .  S
C286        C287   1.443       .  A
C287        C288   1.416       .  A
C287       Br296   1.913       .  S
C288       Br292   1.941       .  S
Br290       C914   1.931   1_554  S
Br294       C915   1.926       .  S
C297        C728   1.525       .  S
C297        C302   1.428       .  A
C297        C934   1.429       .  A
C298        C933   1.428       .  A
C298        C935   1.415   1_545  A
C298       Br310   1.936       .  S
C299        C300   1.408       .  A
C299        C934   1.413   1_565  A
C299       Br950   1.934       .  S
C300        C303   1.510       .  S
C300        C301   1.409       .  A
C301        C302   1.422   1_565  A
C301       Br309   1.931       .  S
C302       Br313   1.926       .  S
C303        C304   1.397       .  A
C303        C308   1.394       .  A
C304        C305   1.428       .  A
C304       Br315   1.944       .  S
C305        C306   1.467       .  A
C305       Br311   1.944       .  S
C306        C307   1.451       .  A
C307        C308   1.420       .  A
C307       Br316   1.924       .  S
C308       Br312   1.944       .  S
Br314       C935   1.936       .  S
C317        C318   1.409       .  A
C317        C322   1.403       .  A
C318        C319   1.404       .  A
C318       Br330   1.910       .  S
C319        C320   1.405       .  A
C319       Br334   1.928       .  S
C320        C323   1.476       .  S
C320        C321   1.407       .  A
C321        C322   1.403       .  A
C321       Br329   1.925       .  S
C322       Br333   1.917       .  S
C323        C324   1.408   1_565  A
C323        C328   1.406       .  A
C324        C325   1.407       .  A
C324       Br335   1.930       .  S
C325        C326   1.414       .  A
C325       Br331   1.932       .  S
C326        C327   1.413   1_545  A
C327        C328   1.402       .  A
C327       Br336   1.934       .  S
C328       Br332   1.933       .  S
C337        C338   1.415       .  A
C337        C342   1.418       .  A
C338        C339   1.412       .  A
C338       Br350   1.933       .  S
C339        C340   1.412       .  A
C339       Br354   1.931       .  S
C340        C343   1.504       .  S
C340        C341   1.413       .  A
C341        C342   1.417       .  A
C341       Br349   1.929       .  S
C342       Br353   1.932       .  S
C343        C344   1.408       .  A
C343        C348   1.402       .  A
C344        C345   1.421       .  A
C344       Br355   1.931       .  S
C345        C346   1.432       .  A
C345       Br351   1.931       .  S
C346        C347   1.436       .  A
C347        C348   1.412       .  A
C347       Br356   1.927       .  S
C348       Br352   1.942       .  S
C357        C358   1.414       .  A
C357        C362   1.413       .  A
C358        C359   1.407       .  A
C358       Br370   1.933       .  S
C359        C360   1.409       .  A
C359       Br374   1.932       .  S
C360        C363   1.491   1_455  S
C360        C361   1.411       .  A
C361        C362   1.413       .  A
C361       Br369   1.929   1_455  S
C362       Br373   1.929       .  S
C363        C364   1.404       .  A
C363        C368   1.403       .  A
C364        C365   1.412       .  A
C364       Br375   1.937       .  S
C365        C366   1.422       .  A
C365       Br371   1.902       .  S
C366        C367   1.432       .  A
C367        C368   1.410       .  A
C367       Br376   1.940       .  S
C368       Br372   1.931       .  S
C377        C378   1.409       .  A
C377        C382   1.413       .  A
C378        C379   1.412       .  A
C378       Br390   1.932       .  S
C379        C380   1.417   1_545  A
C379       Br394   1.922       .  S
C380        C383   1.504       .  S
C380        C381   1.412       .  A
C381        C382   1.411   1_565  A
C381       Br389   1.930       .  S
C382       Br393   1.930       .  S
C383        C384   1.400       .  A
C383        C388   1.408       .  A
C384        C385   1.411       .  A
C384       Br395   1.934       .  S
C385        C386   1.424       .  A
C385       Br391   1.893       .  S
C386        C387   1.442       .  A
C387        C388   1.427       .  A
C387       Br396   1.917       .  S
C388       Br392   1.935       .  S
C397        C398   1.424       .  A
C397        C402   1.411       .  A
C398        C399   1.417       .  A
C398       Br410   1.930       .  S
C399        C400   1.407       .  A
C399       Br414   1.931       .  S
C400        C403   1.517       .  S
C400        C401   1.421       .  A
C401        C402   1.423       .  A
C401       Br409   1.925       .  S
C402       Br413   1.928       .  S
C403        C404   1.404       .  A
C403        C408   1.400       .  A
C404        C405   1.421       .  A
C404       Br415   1.917       .  S
C405        C406   1.425       .  A
C405       Br411   1.932       .  S
C406        C407   1.464       .  A
C407        C408   1.431       .  A
C407       Br416   1.917       .  S
C408       Br412   1.946       .  S
C417        C422   1.427       .  A
C417       C1054   1.421   1_554  A
C418        C419   1.418       .  A
C418       C1053   1.420       .  A
C418       Br430   1.930       .  S
C419        C420   1.411       .  A
C419       Br434   1.929       .  S
C420        C423   1.502       .  S
C420        C421   1.407       .  A
C421       C1058   1.414       .  A
C421       Br429   1.933       .  S
C422       C1057   1.414   1_554  A
C422       Br433   1.936       .  S
C423        C424   1.410   1_545  A
C423        C428   1.411       .  A
C424        C425   1.412       .  A
C424      Br1071   1.928       .  S
C425        C426   1.415       .  A
C425       Br431   1.919       .  S
C426        C427   1.421       .  A
C427        C428   1.416   1_565  A
C427       Br436   1.930   1_565  S
C428       Br432   1.926       .  S
Br435      C1060   1.928       .  S
C437        C438   1.432       .  A
C437        C442   1.426       .  A
C438        C439   1.413       .  A
C438       Br450   1.924       .  S
C439        C440   1.403       .  A
C439       Br454   1.936       .  S
C440        C443   1.490       .  S
C440        C441   1.399       .  A
C441        C442   1.411       .  A
C441       Br449   1.936       .  S
C442       Br453   1.905       .  S
C443        C444   1.412       .  A
C443        C448   1.406       .  A
C444       C1081   1.413       .  A
C444      Br1091   1.929       .  S
C445        C446   1.413       .  A
C445       C1080   1.409       .  A
C445       Br451   1.933       .  S
C446       C1083   1.413   1_554  A
C447        C448   1.405       .  A
C447       C1082   1.415       .  A
C447       Br456   1.933       .  S
C448       Br452   1.932       .  S
Br455      C1080   1.930       .  S
C457        C458   1.419       .  A
C457        C462   1.413       .  A
C458        C459   1.414   1_655  A
C458       Br470   1.931       .  S
C459        C460   1.409       .  A
C459       Br474   1.931       .  S
C460        C463   1.504       .  S
C460        C461   1.414   1_455  A
C461        C462   1.416       .  A
C461      Br1105   1.929   1_655  S
C462       Br473   1.928       .  S
C463        C464   1.408       .  A
C463        C468   1.409       .  A
C464        C465   1.416       .  A
C464       Br475   1.930       .  S
C465        C466   1.423       .  A
C465       Br471   1.926       .  S
C466        C467   1.422       .  A
C467        C468   1.414       .  A
C467      Br1112   1.927       .  S
C468      Br1108   1.932       .  S
Br469      C1097   1.929   1_455  S
Br472      C1104   1.932       .  S
Br476      C1103   1.927       .  S
C477        C478   1.416       .  A
C477        C482   1.414       .  A
C478        C479   1.410       .  A
C478       Br490   1.934       .  S
C479        C480   1.411       .  A
C479       Br494   1.930       .  S
C480        C483   1.501       .  S
C480        C481   1.413       .  A
C481        C482   1.417       .  A
C481       Br489   1.928       .  S
C482       Br493   1.929       .  S
C483        C484   1.407       .  A
C483        C488   1.397       .  A
C484        C485   1.424       .  A
C484       Br495   1.932       .  S
C485        C486   1.435       .  A
C485       Br491   1.925       .  S
C486        C487   1.460       .  A
C487        C488   1.412       .  A
C487      Br1132   1.949   1_554  S
C488      Br1128   1.946       .  S
Br492      C1124   1.938       .  S
Br496      C1123   1.910       .  S
C497        C498   1.435       .  A
C497        C502   1.421       .  A
C498        C499   1.419       .  A
C498       Br510   1.940       .  S
C499        C500   1.409       .  A
C499       Br514   1.933       .  S
C500        C503   1.515       .  S
C500        C501   1.412       .  A
C501        C502   1.418       .  A
C501       Br509   1.929   1_554  S
C502       Br513   1.918       .  S
C503        C504   1.412       .  A
C503        C508   1.408       .  A
C504        C505   1.424       .  A
C504       Br515   1.931       .  S
C505        C506   1.426       .  A
C505      Br1147   1.925       .  S
C506        C507   1.434       .  A
C507        C508   1.416       .  A
C507       Br516   1.940       .  S
C508       Br512   1.935       .  S
Br511      C1141   1.929       .  S
C517        C518   1.434       .  A
C517        C522   1.452       .  A
C518        C519   1.424       .  A
C518       Br530   1.925       .  S
C519        C520   1.408       .  A
C519       Br534   1.931       .  S
C520        C523   1.496       .  S
C520        C521   1.394       .  A
C521        C522   1.410       .  A
C521       Br529   1.943       .  S
C522       Br533   1.932       .  S
C523        C524   1.417       .  A
C523        C528   1.413       .  A
C524        C525   1.404       .  A
C524       Br535   1.923       .  S
C525        C526   1.405       .  A
C525       Br531   1.937       .  S
C526        C527   1.408       .  A
C527        C528   1.412       .  A
C527       Br536   1.926       .  S
C528       Br532   1.929       .  S
C537        C538   1.414       .  A
C537        C542   1.417       .  A
C538        C539   1.407       .  A
C538       Br550   1.931       .  S
C539        C540   1.406   1_565  A
C539       Br554   1.926       .  S
C540        C543   1.484       .  S
C540        C541   1.407   1_545  A
C541        C542   1.405       .  A
C541       Br549   1.932   1_565  S
C542       Br553   1.934       .  S
C543        C544   1.393       .  A
C543        C548   1.392       .  A
C544        C545   1.408       .  A
C544       Br555   1.940       .  S
C545        C546   1.449       .  A
C545       Br551   1.936       .  S
C546        C675   1.639       .  S
C546        C547   1.465       .  A
C547        C548   1.416       .  A
C547      Br1192   1.946       .  S
C548      Br1188   1.943       .  S
Br552      C1184   1.945   1_565  S
Br556      C1183   1.965       .  S
C557        C675   1.615       .  S
C557        C558   1.456       .  A
C557        C562   1.440       .  A
C558        C559   1.415       .  A
C558       Br570   1.932       .  S
C559        C560   1.396       .  A
C559       Br574   1.947       .  S
C560        C563   1.518       .  S
C560        C561   1.411       .  A
C561        C562   1.436       .  A
C561       Br569   1.930       .  S
C562       Br573   1.949       .  S
C563        C564   1.417       .  A
C563        C568   1.410       .  A
C564        C565   1.424       .  A
C564       Br575   1.928       .  S
C565        C566   1.417       .  A
C565       Br571   1.927       .  S
C566        C567   1.425       .  A
C567        C568   1.416       .  A
C567       Br576   1.937       .  S
C568       Br572   1.928       .  S
C577        C578   1.431       .  A
C577        C582   1.430       .  A
C578        C579   1.417       .  A
C578       Br590   1.922       .  S
C579        C580   1.405       .  A
C579       Br594   1.932       .  S
C580        C583   1.511   1_545  S
C580        C581   1.410   1_545  A
C581        C582   1.421   1_565  A
C581       Br589   1.930       .  S
C582       Br593   1.928       .  S
C583        C584   1.413       .  A
C583        C588   1.411       .  A
C584        C585   1.418       .  A
C584       Br595   1.927       .  S
C585        C586   1.416       .  A
C585       Br591   1.927       .  S
C586        C587   1.420       .  A
C587        C588   1.418       .  A
C587       Br596   1.931       .  S
C588       Br592   1.931   1_565  S
C597        C598   1.423       .  A
C597        C602   1.427       .  A
C598        C599   1.411       .  A
C598       Br610   1.903       .  S
C599        C600   1.400       .  A
C599       Br614   1.935       .  S
C600        C603   1.483       .  S
C600        C601   1.401       .  A
C601        C602   1.407       .  A
C601       Br609   1.936       .  S
C602       Br613   1.919       .  S
C603        C604   1.407       .  A
C603        C608   1.410       .  A
C604        C605   1.405       .  A
C604       Br615   1.931       .  S
C605        C606   1.412       .  A
C605       Br611   1.932       .  S
C606        C607   1.412       .  A
C607        C608   1.408       .  A
C607       Br616   1.932       .  S
C608       Br612   1.930       .  S
C617        C618   1.410       .  A
C617        C622   1.409       .  A
C618        C619   1.403       .  A
C618       Br630   1.934       .  S
C619        C620   1.411       .  A
C619       Br634   1.933       .  S
C620        C623   1.487       .  S
C620        C621   1.411       .  A
C621        C622   1.411       .  A
C621       Br629   1.928       .  S
C622       Br633   1.928       .  S
C623        C624   1.404       .  A
C623        C628   1.394       .  A
C624        C625   1.420       .  A
C624       Br635   1.937       .  S
C625        C626   1.439       .  A
C625       Br631   1.928       .  S
C626        C627   1.441       .  A
C627        C628   1.401       .  A
C627       Br636   1.943       .  S
C628       Br632   1.938       .  S
O637       Ni643   1.926       .  S
O637        C658   1.271       .  A
O638       Ni661   1.920       .  S
O638        C647   1.269       .  A
O639       Ni643   1.897       .  S
O639       Ni661   1.898       .  S
O639       Ni655   1.902       .  S
O639        H662   0.961       .  S
C640        O657   1.272       .  A
C640        O649   1.268       .  A
C640       C1173   1.470       .  S
O641       Ni660   1.905       .  S
O641        C647   1.266       .  A
O642       Ni660   1.906       .  S
O642        C644   1.268       .  A
Ni643       O646   1.914       .  S
Ni643       O648   1.912       .  S
C644        O654   1.278       .  A
C644       C1222   1.495       .  S
O645       Ni661   1.914       .  S
O645        C651   1.277       .  A
O646        C651   1.277       .  A
C647       C1253   1.473       .  S
O648        C650   1.271       .  A
O649       Ni660   1.901       .  S
C650        O656   1.280       .  A
C650       C1202   1.505       .  S
C651       C1242   1.471       .  S
H652        O653   0.960       .  S
O653       Ni661   1.924       .  S
O653       Ni655   1.923       .  S
O653       Ni660   1.918       .  S
O654       Ni655   1.955       .  S
Ni655       O659   1.913       .  S
Ni655       O657   1.914       .  S
O656       Ni661   1.959       .  S
C658        O659   1.269       .  A
C658       C1162   1.475       .  S
C663        C664   1.533       .  S
C663        C669   1.535       .  S
C663        C667   1.530       .  S
C663       C1213   1.582       .  S
C664        H671   1.062       .  S
C664        C665   1.382       .  D
C665        C666   1.622       .  S
C665        C675   1.648       .  S
C666        C670   1.581       .  S
C666        C668   1.574       .  S
C666        H672   1.106       .  S
C667        H673   1.081       .  S
C667        C668   1.360       .  D
C668       C1233   1.530       .  S
C669        H674   1.067       .  S
C669        C670   1.370       .  D
C670       C1133   1.539       .  S
C675       C1122   1.603       .  S
O676       Ni682   1.928       .  S
O676        C697   1.270       .  A
O677       Ni700   1.933       .  S
O677        C686   1.278       .  A
O678       Ni682   1.893       .  S
O678       Ni700   1.896       .  S
O678       Ni694   1.903       .  S
O678        H701   0.966       .  S
C679        O696   1.270       .  A
C679        O688   1.274       .  A
C679       C1013   1.493       .  S
O680       Ni699   1.927       .  S
O680        C686   1.272       .  A
O681       Ni699   1.913       .  S
O681        C683   1.270       .  A
Ni682       O685   1.913       .  S
Ni682       O687   1.908       .  S
C683        O693   1.282       .  A
C683       C1053   1.510       .  S
O684       Ni700   1.943       .  S
O684        C690   1.285       .  A
O685        C690   1.279       .  A
C686       C1093   1.499       .  S
O687        C689   1.269       .  A
O688       Ni699   1.945       .  S
C689        O695   1.286       .  A
C689       C1033   1.512       .  S
C690       C1082   1.485       .  S
H691        O692   0.967       .  S
O692       Ni700   1.949       .  S
O692       Ni694   1.930       .  S
O692       Ni699   1.925       .  S
O693       Ni694   1.970       .  S
Ni694       O698   1.923       .  S
Ni694       O696   1.919       .  S
O695       Ni700   1.974       .  S
C697        O698   1.270       .  A
C697       C1113   1.501       .  S
C702        C703   1.522       .  S
C702        C708   1.520       .  S
C702        C706   1.546       .  S
C702       C1062   1.566       .  S
C703        H710   1.057       .  S
C703        C704   1.385       .  D
C704        C705   1.610       .  S
C704        C714   1.644       .  S
C705        C709   1.583       .  S
C705        C707   1.561       .  S
C705        H711   1.078       .  S
C706        H712   1.084       .  S
C706        C707   1.370       .  D
C707       C1073   1.525       .  S
C708        H713   1.082       .  S
C708        C709   1.358       .  D
C709       C1002   1.538       .  S
C714       C1022   1.610       .  S
C714       C1042   1.645       .  S
C714       C1153   1.609       .  S
O715       Ni721   1.941       .  S
O715        C736   1.277       .  A
O716       Ni739   1.940       .  S
O716        C725   1.277       .  A
O717       Ni721   1.887       .  S
O717       Ni739   1.909       .  S
O717       Ni733   1.917       .  S
O717        H740   0.964       .  S
C718        O735   1.281       .  A
C718        O727   1.279       .  A
O719       Ni738   1.931       .  S
O719        C725   1.268       .  A
O720       Ni738   1.912       .  S
O720        C722   1.268       .  A
Ni721       O724   1.918       .  S
Ni721       O726   1.913       .  S
C722        O732   1.269       .  A
C722        C973   1.494       .  S
O723       Ni739   1.924       .  S
O723        C729   1.277       .  A
O724        C729   1.277       .  A
C725       C1142   1.523       .  S
O726        C728   1.272       .  A
O727       Ni738   1.925       .  S
C728        O734   1.284       .  A
C729        C962   1.484       .  S
H730        O731   0.974       .  S
O731       Ni739   1.912       .  S
O731       Ni733   1.903       .  S
O731       Ni738   1.898       .  S
O732       Ni733   1.932       .  S
Ni733       O737   1.914       .  S
Ni733       O735   1.928       .  S
O734       Ni739   1.963       .  S
C736        O737   1.269       .  A
C736        C893   1.491       .  S
C741        C742   1.528       .  S
C741        C747   1.518       .  S
C741        C745   1.551       .  S
C741        C982   1.571       .  S
C742        H749   1.081       .  S
C742        C743   1.377       .  D
C743        C744   1.608       .  S
C743        C753   1.607       .  S
C744        C748   1.585       .  S
C744        C746   1.537       .  S
C744        H750   1.088       .  S
C745        H751   1.081       .  S
C745        C746   1.367       .  D
C746        C953   1.512       .  S
C747        H752   1.082       .  S
C747        C748   1.369       .  D
C748       C1262   1.548       .  S
C753        C882   1.624       .  S
C753        C922   1.612       .  S
C753        C942   1.631       .  S
O754       Ni760   1.927       .  S
O754        C775   1.273       .  A
O755       Ni778   1.922       .  S
O755        C764   1.271       .  A
O756       Ni760   1.911       .  S
O756       Ni778   1.907       .  S
O756       Ni772   1.914       .  S
O756        H779   0.966       .  S
C757        O774   1.272       .  A
C757        O766   1.271       .  A
C757        C802   1.502       .  S
O758       Ni777   1.923       .  S
O758        C764   1.271       .  A
O759       Ni777   1.910       .  S
O759        C761   1.269       .  A
Ni760       O763   1.921       .  S
Ni760       O765   1.924       .  S
C761        O771   1.279       .  A
C761        C833   1.496       .  S
O762       Ni778   1.914       .  S
O762        C768   1.274       .  A
O763        C768   1.276       .  A
C764        C993   1.485       .  S
O765        C767   1.273       .  A
O766       Ni777   1.927       .  S
C767        O773   1.283       .  A
C767        C813   1.511   1_565  S
C768        C862   1.481       .  S
H769        O770   0.966       .  S
O770       Ni778   1.923       .  S
O770       Ni772   1.921       .  S
O770       Ni777   1.918       .  S
O771       Ni772   1.967       .  S
Ni772       O776   1.916       .  S
Ni772       O774   1.923       .  S
O773       Ni778   1.967       .  S
C775        O776   1.269       .  A
C775        C873   1.502       .  S
C780        C784   1.514   1_554  S
C780        C842   1.572   1_554  S
C781        H788   1.051       .  S
C781        C782   1.390       .  D
C782        C783   1.576       .  S
C782        C792   1.633       .  S
C783        C787   1.574       .  S
C783        H789   1.094       .  S
C784        H790   1.086       .  S
C784        C785   1.363   1_556  D
C785        C853   1.511   1_554  S
C786        H791   1.084       .  S
C786        C787   1.358       .  D
C787       C1102   1.513       .  S
C792        C793   1.614       .  S
C792        C822   1.636       .  S
C792        C902   1.601       .  S
C793        C794   1.452       .  A
C793        C798   1.444       .  A
C794        C795   1.422       .  A
C794       Br806   1.933       .  S
C795        C796   1.402       .  A
C795       Br810   1.938       .  S
C796        C799   1.494       .  S
C796        C797   1.396       .  A
C797        C798   1.401       .  A
C797       Br805   1.934       .  S
C798       Br809   1.945       .  S
C799        C800   1.402       .  A
C799        C804   1.412       .  A
C800        C801   1.404       .  A
C800       Br811   1.924       .  S
C801        C802   1.423       .  A
C801       Br807   1.938       .  S
C802        C803   1.422       .  A
C803        C804   1.414       .  A
C803       Br812   1.932       .  S
C804       Br808   1.933       .  S
C813        C814   1.414   1_545  A
C813        C818   1.416       .  A
C814        C815   1.425   1_565  A
C814       Br826   1.926       .  S
C815        C816   1.418       .  A
C815       Br830   1.927       .  S
C816        C819   1.526       .  S
C816        C817   1.417       .  A
C817        C818   1.420       .  A
C817       Br825   1.929       .  S
C818       Br829   1.931       .  S
C819        C820   1.400       .  A
C819        C824   1.409       .  A
C820        C821   1.421       .  A
C820       Br831   1.945       .  S
C821        C822   1.459       .  A
C821       Br827   1.929       .  S
C822        C823   1.442       .  A
C823        C824   1.433       .  A
C823       Br832   1.920       .  S
C824       Br828   1.931       .  S
C833        C834   1.413       .  A
C833        C838   1.415       .  A
C834        C835   1.415       .  A
C834       Br846   1.927       .  S
C835        C836   1.412       .  A
C835       Br850   1.928       .  S
C836        C839   1.503       .  S
C836        C837   1.412       .  A
C837        C838   1.414       .  A
C837       Br845   1.931       .  S
C838       Br849   1.928       .  S
C839        C840   1.406       .  A
C839        C844   1.405       .  A
C840        C841   1.417       .  A
C840       Br851   1.931       .  S
C841        C842   1.429       .  A
C841       Br847   1.928       .  S
C842        C843   1.435       .  A
C843        C844   1.415       .  A
C843       Br852   1.934       .  S
C844       Br848   1.936       .  S
C853        C854   1.431       .  A
C853        C858   1.428   1_556  A
C854        C855   1.398       .  A
C854       Br866   1.941       .  S
C855        C856   1.399       .  A
C855       Br870   1.938       .  S
C856        C859   1.478       .  S
C856        C857   1.404       .  A
C857        C858   1.413   1_556  A
C857       Br865   1.931   1_556  S
C859        C860   1.407       .  A
C859        C864   1.406       .  A
C860        C861   1.406       .  A
C860       Br871   1.932       .  S
C861        C862   1.415   1_545  A
C861       Br867   1.932       .  S
C862        C863   1.416       .  A
C863        C864   1.406   1_565  A
C863       Br872   1.932       .  S
C864       Br868   1.932       .  S
C873        C874   1.419       .  A
C873        C878   1.422       .  A
C874        C875   1.413       .  A
C874       Br886   1.933       .  S
C875        C876   1.411       .  A
C875       Br890   1.932       .  S
C876        C879   1.501       .  S
C876        C877   1.411       .  A
C877        C878   1.412       .  A
C877       Br885   1.934       .  S
C878       Br889   1.935       .  S
C879        C880   1.397       .  A
C879        C884   1.396       .  A
C880        C881   1.419       .  A
C880       Br891   1.939       .  S
C881        C882   1.464       .  A
C881       Br887   1.935       .  S
C882        C883   1.450       .  A
C883        C884   1.414       .  A
C883       Br892   1.915       .  S
C884       Br888   1.942       .  S
C893        C894   1.410       .  A
C893        C898   1.415       .  A
C894        C895   1.409       .  A
C894       Br906   1.934       .  S
C895        C896   1.414       .  A
C895       Br910   1.923       .  S
C896        C899   1.507       .  S
C896        C897   1.412       .  A
C897        C898   1.418       .  A
C897       Br905   1.926       .  S
C898       Br909   1.928       .  S
C899        C900   1.400       .  A
C899        C904   1.403       .  A
C900        C901   1.418       .  A
C900       Br911   1.935       .  S
C901        C902   1.442       .  A
C901       Br907   1.927       .  S
C902        C903   1.450       .  A
C903        C904   1.420       .  A
C903       Br912   1.946       .  S
C904       Br908   1.939       .  S
C913        C914   1.411       .  A
C913        C918   1.409       .  A
C914        C915   1.407       .  A
C915        C916   1.412       .  A
C916        C919   1.501       .  S
C916        C917   1.416       .  A
C917        C918   1.414       .  A
C917       Br925   1.927       .  S
C918       Br929   1.929       .  S
C919        C920   1.399       .  A
C919        C924   1.403       .  A
C920        C921   1.412       .  A
C920       Br931   1.932       .  S
C921        C922   1.447       .  A
C921       Br927   1.933       .  S
C922        C923   1.444       .  A
C923        C924   1.417       .  A
C923       Br932   1.916       .  S
C924       Br928   1.939       .  S
C933        C938   1.422       .  A
C934       Br946   1.938       .  S
C935        C936   1.410       .  A
C936        C939   1.511       .  S
C936        C937   1.410       .  A
C937        C938   1.421   1_565  A
C937       Br945   1.930       .  S
C938       Br949   1.921       .  S
C939        C940   1.398       .  A
C939        C944   1.395       .  A
C940        C941   1.428       .  A
C940       Br951   1.947       .  S
C941        C942   1.468       .  A
C941       Br947   1.944       .  S
C942        C943   1.450       .  A
C943        C944   1.422       .  A
C943       Br952   1.921       .  S
C944       Br948   1.945       .  S
C953        C954   1.410       .  A
C953        C958   1.402       .  A
C954        C955   1.406       .  A
C954       Br966   1.913       .  S
C955        C956   1.407       .  A
C955       Br970   1.928       .  S
C956        C959   1.483       .  S
C956        C957   1.408       .  A
C957        C958   1.406       .  A
C957       Br965   1.925       .  S
C958       Br969   1.913       .  S
C959        C960   1.410   1_565  A
C959        C964   1.406       .  A
C960        C961   1.410       .  A
C960       Br971   1.930       .  S
C961        C962   1.416       .  A
C961       Br967   1.932       .  S
C962        C963   1.415   1_545  A
C963        C964   1.404       .  A
C963       Br972   1.935       .  S
C964       Br968   1.931       .  S
C973        C974   1.414       .  A
C973        C978   1.419       .  A
C974        C975   1.410       .  A
C974       Br986   1.932       .  S
C975        C976   1.412       .  A
C975       Br990   1.931       .  S
C976        C979   1.499       .  S
C976        C977   1.411       .  A
C977        C978   1.415       .  A
C977       Br985   1.929       .  S
C978       Br989   1.933       .  S
C979        C980   1.408       .  A
C979        C984   1.400       .  A
C980        C981   1.420       .  A
C980       Br991   1.930       .  S
C981        C982   1.431       .  A
C981       Br987   1.931       .  S
C982        C983   1.435       .  A
C983        C984   1.408       .  A
C983       Br992   1.926       .  S
C984       Br988   1.942       .  S
C993        C994   1.412       .  A
C993        C998   1.411       .  A
C994        C995   1.406       .  A
C994      Br1006   1.929       .  S
C995        C996   1.409       .  A
C995      Br1010   1.932       .  S
C996        C999   1.493   1_455  S
C996        C997   1.412       .  A
C997        C998   1.414       .  A
C997      Br1005   1.929   1_455  S
C998      Br1009   1.927       .  S
C999       C1000   1.405       .  A
C999       C1004   1.403       .  A
C1000      C1001   1.414       .  A
C1000     Br1011   1.937       .  S
C1001      C1002   1.423       .  A
C1001     Br1007   1.903       .  S
C1002      C1003   1.432       .  A
C1003      C1004   1.409       .  A
C1003     Br1012   1.940       .  S
C1004     Br1008   1.931       .  S
C1013      C1014   1.410       .  A
C1013      C1018   1.413       .  A
C1014      C1015   1.414       .  A
C1014     Br1026   1.931       .  S
C1015      C1016   1.417   1_545  A
C1015     Br1030   1.921       .  S
C1016      C1019   1.507       .  S
C1016      C1017   1.413       .  A
C1017      C1018   1.413   1_565  A
C1017     Br1025   1.930       .  S
C1018     Br1029   1.928       .  S
C1019      C1020   1.401       .  A
C1019      C1024   1.409       .  A
C1020      C1021   1.412       .  A
C1020     Br1031   1.934       .  S
C1021      C1022   1.423       .  A
C1021     Br1027   1.895       .  S
C1022      C1023   1.441       .  A
C1023      C1024   1.428       .  A
C1023     Br1032   1.916       .  S
C1024     Br1028   1.934       .  S
C1033      C1034   1.423       .  A
C1033      C1038   1.412       .  A
C1034      C1035   1.417       .  A
C1034     Br1046   1.929       .  S
C1035      C1036   1.408       .  A
C1035     Br1050   1.931       .  S
C1036      C1039   1.519       .  S
C1036      C1037   1.421       .  A
C1037      C1038   1.424       .  A
C1037     Br1045   1.924       .  S
C1038     Br1049   1.928       .  S
C1039      C1040   1.405       .  A
C1039      C1044   1.399       .  A
C1040      C1041   1.422       .  A
C1040     Br1051   1.917       .  S
C1041      C1042   1.427       .  A
C1041     Br1047   1.933       .  S
C1042      C1043   1.467       .  A
C1043      C1044   1.431       .  A
C1043     Br1052   1.917       .  S
C1044     Br1048   1.948       .  S
C1053      C1058   1.425       .  A
C1054      C1055   1.419       .  A
C1054     Br1066   1.930   1_556  S
C1055      C1056   1.410       .  A
C1055     Br1070   1.929       .  S
C1056      C1059   1.503       .  S
C1056      C1057   1.407       .  A
C1057     Br1065   1.934       .  S
C1058     Br1069   1.935       .  S
C1059      C1060   1.409   1_545  A
C1059      C1064   1.410       .  A
C1060      C1061   1.413       .  A
C1061      C1062   1.415       .  A
C1061     Br1067   1.918       .  S
C1062      C1063   1.422       .  A
C1063      C1064   1.416   1_565  A
C1063     Br1072   1.929   1_565  S
C1064     Br1068   1.926       .  S
C1073      C1074   1.430       .  A
C1073      C1078   1.424       .  A
C1074      C1075   1.412       .  A
C1074     Br1086   1.925       .  S
C1075      C1076   1.403       .  A
C1075     Br1090   1.936       .  S
C1076      C1079   1.483       .  S
C1076      C1077   1.397       .  A
C1077      C1078   1.407       .  A
C1077     Br1085   1.937       .  S
C1078     Br1089   1.904       .  S
C1079      C1080   1.411   1_556  A
C1079      C1084   1.406       .  A
C1081      C1082   1.414       .  A
C1081     Br1087   1.932       .  S
C1083      C1084   1.403       .  A
C1083     Br1092   1.932       .  S
C1084     Br1088   1.932       .  S
C1093      C1094   1.419       .  A
C1093      C1098   1.413       .  A
C1094      C1095   1.415   1_655  A
C1094     Br1106   1.931       .  S
C1095      C1096   1.410       .  A
C1095     Br1110   1.930       .  S
C1096      C1099   1.503       .  S
C1096      C1097   1.414   1_455  A
C1097      C1098   1.414       .  A
C1098     Br1109   1.929       .  S
C1099      C1100   1.411       .  A
C1099      C1104   1.409       .  A
C1100      C1101   1.416       .  A
C1100     Br1111   1.928       .  S
C1101      C1102   1.416       .  A
C1101     Br1107   1.921       .  S
C1102      C1103   1.418       .  A
C1103      C1104   1.412       .  A
C1113      C1114   1.423       .  A
C1113      C1118   1.421       .  A
C1114      C1115   1.409       .  A
C1114     Br1126   1.936       .  S
C1115      C1116   1.409       .  A
C1115     Br1130   1.936       .  S
C1116      C1119   1.494       .  S
C1116      C1117   1.407       .  A
C1117      C1118   1.414       .  A
C1117     Br1125   1.929       .  S
C1118     Br1129   1.932       .  S
C1119      C1120   1.401       .  A
C1119      C1124   1.394       .  A
C1120      C1121   1.422       .  A
C1120     Br1131   1.936       .  S
C1121      C1122   1.437       .  A
C1121     Br1127   1.888       .  S
C1122      C1123   1.443       .  A
C1123      C1124   1.408       .  A
C1133      C1134   1.434       .  A
C1133      C1138   1.421       .  A
C1134      C1135   1.413       .  A
C1134     Br1146   1.939       .  S
C1135      C1136   1.406       .  A
C1135     Br1150   1.935       .  S
C1136      C1139   1.503       .  S
C1136      C1137   1.410       .  A
C1137      C1138   1.414       .  A
C1137     Br1145   1.930       .  S
C1138     Br1149   1.925       .  S
C1139      C1140   1.409       .  A
C1139      C1144   1.405       .  A
C1140      C1141   1.419       .  A
C1140     Br1151   1.932       .  S
C1141      C1142   1.427       .  A
C1142      C1143   1.436       .  A
C1143      C1144   1.412       .  A
C1143     Br1152   1.941       .  S
C1144     Br1148   1.939       .  S
C1153      C1154   1.434       .  A
C1153      C1158   1.450       .  A
C1154      C1155   1.426       .  A
C1154     Br1166   1.924       .  S
C1155      C1156   1.410       .  A
C1155     Br1170   1.932       .  S
C1156      C1159   1.497       .  S
C1156      C1157   1.394       .  A
C1157      C1158   1.409       .  A
C1157     Br1165   1.942       .  S
C1158     Br1169   1.932       .  S
C1159      C1160   1.418       .  A
C1159      C1164   1.412       .  A
C1160      C1161   1.406       .  A
C1160     Br1171   1.925       .  S
C1161      C1162   1.406       .  A
C1161     Br1167   1.936       .  S
C1162      C1163   1.408       .  A
C1163      C1164   1.411       .  A
C1163     Br1172   1.926       .  S
C1164     Br1168   1.929       .  S
C1173      C1174   1.412       .  A
C1173      C1178   1.413       .  A
C1174      C1175   1.401       .  A
C1174     Br1186   1.933       .  S
C1175      C1176   1.404   1_565  A
C1175     Br1190   1.926   1_556  S
C1176      C1179   1.476       .  S
C1176      C1177   1.409   1_545  A
C1177      C1178   1.405       .  A
C1177     Br1185   1.933   1_565  S
C1178     Br1189   1.931       .  S
C1179      C1180   1.394       .  A
C1179      C1184   1.395   1_556  A
C1180      C1181   1.401       .  A
C1180     Br1191   1.933       .  S
C1181      C1182   1.438   1_556  A
C1181     Br1187   1.936       .  S
C1182      C1183   1.465       .  A
C1183      C1184   1.411       .  A
C1193      C1194   1.457       .  A
C1193      C1198   1.446   1_554  A
C1194      C1195   1.410   1_554  A
C1194     Br1206   1.932   1_554  S
C1195      C1196   1.394       .  A
C1195     Br1210   1.947       .  S
C1196      C1199   1.513       .  S
C1196      C1197   1.410       .  A
C1197      C1198   1.435       .  A
C1197     Br1205   1.933       .  S
C1198     Br1209   1.942       .  S
C1199      C1200   1.417       .  A
C1199      C1204   1.413       .  A
C1200      C1201   1.422       .  A
C1200     Br1211   1.927   1_556  S
C1201      C1202   1.414       .  A
C1201     Br1207   1.926       .  S
C1202      C1203   1.418       .  A
C1203      C1204   1.413       .  A
C1203     Br1212   1.934       .  S
C1204     Br1208   1.929       .  S
C1213      C1214   1.437       .  A
C1213      C1218   1.437       .  A
C1214      C1215   1.413       .  A
C1214     Br1226   1.928       .  S
C1215      C1216   1.400   1_545  A
C1215     Br1230   1.936       .  S
C1216      C1219   1.502       .  S
C1216      C1217   1.405       .  A
C1217      C1218   1.420   1_565  A
C1217     Br1225   1.934       .  S
C1218     Br1229   1.928       .  S
C1219      C1220   1.412       .  A
C1219      C1224   1.410       .  A
C1220      C1221   1.415       .  A
C1220     Br1231   1.928       .  S
C1221      C1222   1.413       .  A
C1221     Br1227   1.926       .  S
C1222      C1223   1.417       .  A
C1223      C1224   1.412       .  A
C1223     Br1232   1.933       .  S
C1224     Br1228   1.931   1_565  S
C1233      C1234   1.422       .  A
C1233      C1238   1.440       .  A
C1234      C1235   1.406       .  A
C1234     Br1246   1.900       .  S
C1235      C1236   1.395       .  A
C1235     Br1250   1.936       .  S
C1236      C1239   1.474       .  S
C1236      C1237   1.399       .  A
C1237      C1238   1.408       .  A
C1237     Br1245   1.941       .  S
C1238     Br1249   1.938       .  S
C1239      C1240   1.404       .  A
C1239      C1244   1.408       .  A
C1240      C1241   1.402       .  A
C1240     Br1251   1.931       .  S
C1241      C1242   1.414       .  A
C1241     Br1247   1.933       .  S
C1242      C1243   1.413       .  A
C1243      C1244   1.404       .  A
C1243     Br1252   1.933       .  S
C1244     Br1248   1.931       .  S
C1253      C1254   1.411       .  A
C1253      C1258   1.410       .  A
C1254      C1255   1.402       .  A
C1254     Br1266   1.936       .  S
C1255      C1256   1.410       .  A
C1255     Br1270   1.932       .  S
C1256      C1259   1.488       .  S
C1256      C1257   1.411       .  A
C1257      C1258   1.412       .  A
C1257     Br1265   1.927       .  S
C1258     Br1269   1.927       .  S
C1259      C1260   1.405       .  A
C1259      C1264   1.393       .  A
C1260      C1261   1.421       .  A
C1260     Br1271   1.936       .  S
C1261      C1262   1.437       .  A
C1261     Br1267   1.926       .  S
C1262      C1263   1.441       .  A
C1263      C1264   1.402       .  A
C1263     Br1272   1.939       .  S
C1264     Br1268   1.939       .  S
