geometry optimzed in LAMMPS
_audit_creation_date              2020-11-30 
_audit_creation_method            'lammps2cif' 
_symmetry_space_group_name_H-M    'P1' 
_symmetry_Int_Tables_number       1 
_symmetry_cell_setting            triclinic 
loop_ 
_symmetry_equiv_pos_as_xyz 
  x,y,z 
_cell_length_a                    27.38353229 
_cell_length_b                    28.389227204538685 
_cell_length_c                    41.02666807132487 
_cell_angle_alpha                 90.53328367510916 
_cell_angle_beta                  90.06614087212469 
_cell_angle_gamma                 78.97975588025314 
loop_ 
_atom_site_label 
_atom_site_type_symbol 
_atom_site_fract_x 
_atom_site_fract_y 
_atom_site_fract_z 
_atom_site_charge 
O1          O  0.15727320  0.37339289  0.61274080    -0.75900
C2          C  0.31604030  0.36233358  0.62634533     0.85100
O3          O  0.24441968  0.23740152  0.54482599    -0.77000
O4          O  0.34453482  0.19598528  0.64456602    -0.78500
O5          O  0.19757586  0.26382930  0.70084684    -0.78300
O6          O  0.12609027  0.32945208  0.64912082    -0.76900
Zn7        Zn  0.22318256  0.33024021  0.59905599     1.55700
O8          O  0.27848426  0.26640764  0.70214639    -0.78300
Cd9        Cd  0.17831123  0.26729523  0.65219590     1.59700
Cd10       Cd  0.24605244  0.21557732  0.59254452     1.59600
O11         O  0.14574760  0.20933767  0.63960917    -0.78300
O12         O  0.23687722  0.27061743  0.62401690    -1.88800
Cd13       Cd  0.29822676  0.26436659  0.65241177     1.59900
O14         O  0.19175080  0.17569866  0.59769341    -0.78300
O15         O  0.33225859  0.32409055  0.64264097    -0.76900
C16         C  0.23511155  0.27875786  0.53197640     0.85600
C17         C  0.12377332  0.36808898  0.63329207     0.85300
O18         O  0.27584662  0.36775860  0.61002177    -0.75900
C19         C  0.23737619  0.26509595  0.71658738     0.86100
O20         O  0.22574702  0.31708471  0.54937356    -0.76000
C21         C  0.15588065  0.17707160  0.61746070     0.86200
C22         C  0.34334317  0.16289527  0.62323314     0.86500
O23         O  0.31044723  0.16725795  0.60104571    -0.78400
C24         C  0.02772740  0.48842973  0.63462102     0.32600
C25         C  0.44701935  0.05505536  0.64724430     0.32600
C26         C  0.47961044  0.47713637  0.62332737    -0.03600
C27         C  0.01695878  0.50075057  0.67071754    -0.04400
C28         C  0.03172890  0.03344115  0.62668454    -0.04300
C29         C  0.43668929  0.51147249  0.63021597    -0.03600
C30         C  0.47495672  0.04102724  0.67917428    -0.04400
C31         C  0.98859561  0.06940291  0.62976209    -0.04300
C32         C  0.39856825  0.48610820  0.63439240    -0.29600
N33         N  0.41644709  0.43861693  0.62894204     0.16900
C34         C  0.46557584  0.43293857  0.62275410    -0.29700
H35         H  0.49004261  0.39833571  0.62057236     0.18800
C36         C  0.46976617  0.05292886  0.71177834    -0.28600
N37         N  0.00595313  0.02432783  0.73128831     0.15600
C38         C  0.03889286  0.48665157  0.70004519    -0.28600
C39         C  0.00378901  0.11287875  0.62903529    -0.28900
N40         N  0.05343660  0.10543329  0.62511086     0.16100
H41         H  0.98103116  0.14731820  0.63530438     0.18700
C42         C  0.07109806  0.05742317  0.62444497    -0.28900
H43         H  0.10998301  0.04107737  0.62699217     0.18700
H44         H  0.07278481  0.46056481  0.70372691     0.18700
H45         H  0.36198604  0.50063542  0.64407700     0.18800
H46         H  0.44002681  0.07846360  0.72303448     0.18700
O47         O  0.02147499  0.03076804  0.98474369    -0.75900
C48         C  0.11149904  0.07683974  0.90792281     0.85100
O49         O  0.40351811  0.06434297  0.89608384    -0.77000
O50         O  0.03623888  0.00968254  0.83178160    -0.78500
O51         O  0.07547691  0.37603841  0.91513907    -0.78300
O52         O  0.02123954  0.44253626  0.98168410    -0.76900
Zn53       Zn  0.01746735  0.05164401  0.93802252     1.55700
O54         O  0.10938985  0.41178379  0.87497127    -0.78300
Cd55       Cd  0.01565226  0.42811443  0.93173477     1.59700
Cd56       Cd  0.44655738  0.99963207  0.88439433     1.59600
O57         O  0.46969837  0.39744868  0.92343444    -0.78300
O58         O  0.01923239  0.99494937  0.91077610    -1.88800
Cd59       Cd  0.07029076  0.99452545  0.87624587     1.59900
O60         O  0.41951053  0.44742811  0.89064638    -0.78300
O61         O  0.11404790  0.04416235  0.88625982    -0.76900
C62         C  0.41109200  0.09868967  0.91421191     0.85600
C63         C  0.03023647  0.99158890  0.00057017     0.85300
O64         O  0.07649468  0.08440653  0.92897963    -0.75900
C65         C  0.10796582  0.37544585  0.89272056     0.86100
O66         O  0.45096050  0.09621472  0.93073681    -0.76000
C67         C  0.42907417  0.40942893  0.90743436     0.86200
C68         C  0.99221869  0.00984257  0.82151518     0.86500
O69         O  0.45327335  0.00328549  0.83488430    -0.78400
C70         C  0.30387494  0.20174481  0.89058531     0.32600
C71         C  0.23178649  0.28239834  0.89284767     0.32600
C72         C  0.32021554  0.24665889  0.90390874    -0.03600
C73         C  0.28071308  0.21887603  0.85762850    -0.04400
C74         C  0.25832769  0.19802798  0.91147010    -0.04300
C75         C  0.28366214  0.28782069  0.90508749    -0.03600
C76         C  0.24362922  0.26008548  0.85863407    -0.04400
C77         C  0.22115140  0.23972152  0.91310713    -0.04300
C78         C  0.30745250  0.32537108  0.91204956    -0.29600
N79         N  0.35716842  0.30781867  0.91513979     0.16900
C80         C  0.36521362  0.25971398  0.91028714    -0.29700
H81         H  0.40153198  0.23663288  0.90893529     0.18800
C82         C  0.23552815  0.27538024  0.82682598    -0.28600
N83         N  0.26662956  0.24471425  0.80686235     0.15600
C84         C  0.29487893  0.21079997  0.82553099    -0.28600
C85         C  0.17709099  0.22441643  0.91969673    -0.28900
N86         N  0.18587601  0.17596415  0.92152663     0.16100
H87         H  0.14022271  0.24640137  0.91978225     0.18700
C88         C  0.23500245  0.15955709  0.91595101    -0.28900
H89         H  0.25208224  0.12222957  0.91238745     0.18700
H90         H  0.32530511  0.18374548  0.81651963     0.18700
H91         H  0.29012129  0.36291457  0.91310077     0.18800
H92         H  0.21163811  0.30826360  0.81911087     0.18700
O93         O  0.46815500  0.41173690  0.10836012    -0.75900
C94         C  0.51780857  0.98418181  0.03220584     0.85100
O95         O  0.10750336  0.42623316  0.15295306    -0.77000
O96         O  0.07459504  0.09958887  0.10357549    -0.78500
O97         O  0.40255864  0.07993310  0.13390032    -0.78300
O98         O  0.41699557  0.46416097  0.13936651    -0.76900
Zn99       Zn  0.52795952  0.44496474  0.10016956     1.55700
O100        O  0.44713632  0.10740295  0.09561812    -0.78300
Cd101      Cd  0.44357120  0.01457257  0.14645877     1.59700
Cd102      Cd  0.07303333  0.01022797  0.15859408     1.59600
O103        O  0.45453449  0.02112420  0.19544826    -0.78300
O104        O  0.50797352  0.99882629  0.12236221    -1.88800
Cd105      Cd  0.51031436  0.05284848  0.09184208     1.59900
O106        O  0.04500871  0.02665241  0.20527811    -0.78300
O107        O  0.51436102  0.02577377  0.04505944    -0.76900
C108        C  0.10436473  0.38895958  0.13614327     0.85600
C109        C  0.42707782  0.42469582  0.12374909     0.85300
O110        O  0.53186922  0.45394786  0.05039607    -0.75900
C111        C  0.40881651  0.11217503  0.11391315     0.86100
O112        O  0.06977844  0.38854020  0.11527247    -0.76000
C113        C  0.49270987  0.02070606  0.21311733     0.86200
C114        C  0.11035521  0.09294392  0.12403104     0.86500
O115        O  0.11440669  0.06080058  0.14582075    -0.78400
C116        C  0.22891483  0.29710480  0.13477710     0.32600
C117        C  0.30116436  0.21665693  0.13699564     0.32600
C118        C  0.28124976  0.30285982  0.12377187    -0.03600
C119        C  0.23922019  0.27459428  0.16871545    -0.04400
C120        C  0.21923681  0.25451924  0.11343393    -0.04300
C121        C  0.31784800  0.26172050  0.12482713    -0.03600
C122        C  0.27631198  0.23358966  0.16975709    -0.04400
C123        C  0.25660240  0.21281375  0.11508123    -0.04300
C124        C  0.36293828  0.27479742  0.11904842    -0.29600
N125        N  0.35497432  0.32293763  0.11489711     0.16900
C126        C  0.30517618  0.34047734  0.11768070    -0.29700
H127        H  0.28786254  0.37802463  0.11690254     0.18800
C128        C  0.28551983  0.22279152  0.20211747    -0.28600
N129        N  0.25456751  0.25531627  0.22076882     0.15600
C130        C  0.22618897  0.28735731  0.20060634    -0.28600
C131        C  0.23325804  0.17423789  0.11077748    -0.28900
N132        N  0.18413475  0.19035783  0.10541451     0.16100
H133        H  0.25019324  0.13708837  0.11484521     0.18700
C134        C  0.17525757  0.23882370  0.10692715    -0.28900
H135        H  0.13830544  0.26062032  0.10710160     0.18700
H136        H  0.20050065  0.31924310  0.20849931     0.18700
H137        H  0.39921952  0.25166639  0.12025578     0.18800
H138        H  0.31424738  0.19465627  0.21155276     0.18700
C139        C  0.44553207  0.07179742  0.38336659     0.32600
C140        C  0.01899252  0.49386728  0.38932215     0.32600
C141        C  0.42861372  0.02645048  0.39524168    -0.03600
C142        C  0.47518879  0.05375033  0.35230982    -0.04400
C143        C  0.98736326  0.08005783  0.41124239    -0.04300
C144        C  0.46608461  0.48760641  0.39893024    -0.03600
C145        C  0.01603363  0.02003759  0.35847649    -0.04400
C146        C  0.02596966  0.03898069  0.41449022    -0.04300
C147        C  0.44367205  0.44892584  0.40433920    -0.29600
N148        N  0.39357964  0.46449829  0.40408158     0.16900
C149        C  0.38401191  0.51242066  0.39851012    -0.29700
H150        H  0.34714817  0.03308389  0.39462931     0.18800
C151        C  0.03656395  0.50321546  0.32583056    -0.28600
N152        N  0.51013333  0.03090976  0.30431297     0.15600
C153        C  0.47375315  0.06340327  0.31931978    -0.28600
C154        C  0.06901188  0.05682420  0.42040808    -0.28900
N155        N  0.05877345  0.10528117  0.42140774     0.16100
H156        H  0.10653948  0.03632596  0.41876534     0.18700
C157        C  0.00951859  0.11969513  0.41554944    -0.28900
H158        H  0.99171783  0.15628830  0.41049319     0.18700
H159        H  0.44779909  0.09118339  0.30709809     0.18700
H160        H  0.46238516  0.41198887  0.40705808     0.16800
H161        H  0.06605869  0.47281428  0.32068605     0.18700
O162        O  0.17048386  0.19443404  0.42367920    -0.75900
C163        C  0.33168287  0.17253259  0.40237867     0.85100
O164        O  0.23610136  0.32105999  0.48218331    -0.77000
O165        O  0.32923053  0.32351764  0.37945932    -0.78500
O166        O  0.18179375  0.28985210  0.32742117    -0.78300
O167        O  0.12373694  0.24328449  0.38867928    -0.76900
Zn168      Zn  0.23187920  0.22465717  0.43149127     1.55700
O169        O  0.26452247  0.27056700  0.32457661    -0.78300
Cd170      Cd  0.16715287  0.29348184  0.37760783     1.59700
Cd171      Cd  0.23251460  0.33801872  0.43294806     1.59600
O172        O  0.12599484  0.36073837  0.38908685    -0.78300
O173        O  0.22975994  0.28078137  0.40408704    -1.88800
Cd174      Cd  0.28753812  0.27023445  0.37299732     1.59900
O175        O  0.16921760  0.38948488  0.42815941    -0.78300
O176        O  0.33402786  0.20487663  0.38141553    -0.76900
C177        C  0.23472796  0.28137919  0.49603447     0.85600
C178        C  0.13076823  0.20640020  0.40685480     0.85300
O179        O  0.29544785  0.17595643  0.42237031    -0.75900
C180        C  0.22193353  0.27954023  0.31085806     0.86100
O181        O  0.23292138  0.24336451  0.47955411    -0.76000
C182        C  0.13140801  0.39331717  0.40970914     0.86200
C183        C  0.32602538  0.35958904  0.39864960     0.86500
O184        O  0.29187033  0.36962333  0.42012884    -0.78400
C185        C  0.09098886  0.17752860  0.40802822    -0.13800
C186        C  0.09666930  0.13444825  0.42254033    -0.29000
H187        H  0.05665024  0.19154609  0.39525715     0.15200
H188        H  0.13225178  0.11935836  0.43357562     0.15800
C189        C  0.09337678  0.43747319  0.41237775    -0.13800
C190        C  0.05675506  0.44766148  0.39047096    -0.29000
H191        H  0.09634855  0.46195213  0.43235364     0.15200
H192        H  0.05325644  0.42126714  0.37166994     0.15800
C193        C  0.37245663  0.13029311  0.40450234    -0.13800
C194        C  0.40406644  0.11520545  0.37974879    -0.29000
H195        H  0.37604122  0.11015117  0.42705597     0.15200
H196        H  0.39957674  0.13384658  0.35662484     0.15800
C197        C  0.35628325  0.43539905  0.40733732    -0.13800
C198        C  0.36379835  0.39005138  0.39588603    -0.29000
H199        H  0.32043843  0.45155211  0.41774070     0.15200
H200        H  0.39802735  0.37541525  0.38299145     0.15800
C201        C  0.25724727  0.25741786  0.25590351    -0.13800
C202        C  0.21862536  0.27829526  0.27469212    -0.29000
H203        H  0.29136208  0.23952084  0.26755842     0.15200
H204        H  0.18333072  0.29346756  0.26337652     0.15800
C205        C  0.52067514  0.02526418  0.27008183    -0.13800
C206        C  0.48403965  0.03164302  0.24805012    -0.29000
H207        H  0.05992553  0.51458533  0.26088884     0.15200
H208        H  0.44582881  0.04310228  0.25617754     0.15800
C209        C  0.14936095  0.12226034  0.12276452    -0.13800
C210        C  0.14579961  0.16198113  0.10465103    -0.29000
H211        H  0.18166390  0.11146527  0.13825388     0.15200
H212        H  0.11195534  0.17508586  0.09102745     0.15800
C213        C  0.14184992  0.34487109  0.14099052    -0.13800
C214        C  0.18987246  0.34294579  0.13317295    -0.29000
H215        H  0.12937537  0.31313604  0.14955438     0.15200
H216        H  0.20088287  0.37526258  0.12422294     0.15800
C217        C  0.34140819  0.17206246  0.13810243    -0.13800
C218        C  0.37040911  0.15630602  0.11218263    -0.29000
H219        H  0.34706381  0.15243541  0.16082083     0.15200
H220        H  0.36680171  0.17696023  0.08985979     0.15800
C221        C  0.39413319  0.35017507  0.11198010    -0.13800
C222        C  0.38832691  0.39503066  0.12390657    -0.29000
H223        H  0.42992708  0.33276808  0.10211726     0.15200
H224        H  0.35344090  0.41081160  0.13563418     0.15800
C225        C  0.14743157  0.14778661  0.92386007    -0.13800
C226        C  0.15120963  0.10550058  0.90814319    -0.29000
H227        H  0.11317079  0.16296948  0.93658073     0.15200
H228        H  0.18382832  0.09228527  0.89329781     0.15800
C229        C  0.37250739  0.14247743  0.91576294    -0.13800
C230        C  0.34396025  0.15715742  0.88965039    -0.29000
H231        H  0.36862399  0.16389996  0.93801489     0.15200
H232        H  0.35012495  0.13686410  0.86695760     0.15800
C233        C  0.14498809  0.33105811  0.88700822    -0.13800
C234        C  0.19304959  0.32850985  0.89491188    -0.29000
H235        H  0.13213696  0.29964534  0.87777761     0.15200
H236        H  0.20425537  0.36056467  0.90458277     0.15800
C237        C  0.39625614  0.33507566  0.91862806    -0.13800
C238        C  0.39011467  0.38013661  0.90768506    -0.29000
H239        H  0.43231923  0.31747107  0.92780684     0.15200
H240        H  0.35505175  0.39607496  0.89640209     0.15800
C241        C  0.98043846  0.01907284  0.78696084    -0.13800
C242        C  0.01588064  0.02326435  0.76543818    -0.29000
H243        H  0.94258068  0.01997905  0.77864568     0.15200
H244        H  0.05904658  0.49094544  0.76576231     0.15800
C245        C  0.23407796  0.26558256  0.75264396    -0.13800
C246        C  0.27278696  0.24864939  0.77210854    -0.29000
H247        H  0.19745116  0.27666191  0.76347016     0.15200
H248        H  0.30859444  0.23349296  0.76124685     0.15800
C249        C  0.38084329  0.11773010  0.62294596    -0.13800
C250        C  0.40311227  0.09691681  0.64982185    -0.29000
H251        H  0.39016289  0.10034595  0.59944917     0.15200
H252        H  0.39301726  0.11325624  0.67350725     0.15800
C253        C  0.07405749  0.45098636  0.62708693    -0.13800
C254        C  0.08081317  0.40699226  0.64016493    -0.29000
H255        H  0.10174658  0.45987698  0.61049659     0.15200
H256        H  0.05362021  0.39915641  0.65755604     0.15800
C257        C  0.34279071  0.40300919  0.62590971    -0.13800
C258        C  0.39102771  0.39903473  0.63326910    -0.29000
H259        H  0.32258751  0.43714239  0.61697101     0.15200
H260        H  0.41260016  0.36414866  0.63975093     0.15800
C261        C  0.12636797  0.13910826  0.61445542    -0.13800
C262        C  0.08189681  0.14264879  0.62863385    -0.29000
H263        H  0.14095611  0.10789256  0.59942275     0.15200
H264        H  0.06558500  0.17530021  0.64177459     0.15800
O265        O  0.16532953  0.87498901  0.59891035    -0.75900
C266        C  0.31654889  0.85953996  0.62942856     0.85100
O267        O  0.24258095  0.73376891  0.54348736    -0.77000
O268        O  0.33764172  0.69597517  0.64789391    -0.78500
O269        O  0.18157516  0.77564422  0.69785803    -0.78300
O270        O  0.12352882  0.84528869  0.63778113    -0.76900
Zn271      Zn  0.22973963  0.82827756  0.59456783     1.55700
O272        O  0.26412859  0.76531253  0.70257305    -0.78300
Cd273      Cd  0.16895202  0.77865509  0.64741926     1.59700
Cd274      Cd  0.24305795  0.71627315  0.59237617     1.59600
O275        O  0.13436664  0.72122451  0.63428716    -0.78300
O276        O  0.23315673  0.77265698  0.62256185    -1.88800
Cd277      Cd  0.29059500  0.76426102  0.65441694     1.59900
O278        O  0.18763916  0.67907080  0.59870169    -0.78300
O279        O  0.32732181  0.82298501  0.64812121    -0.76900
C280        C  0.24041436  0.77411331  0.52977343     0.85600
C281        C  0.12795624  0.87829495  0.61761223     0.85300
O282        O  0.28123991  0.86401524  0.60891968    -0.75900
C283        C  0.22085685  0.76976508  0.71534545     0.86100
O284        O  0.23771360  0.81262700  0.54636800    -0.76000
C285        C  0.14799805  0.68489061  0.61541880     0.86200
C286        C  0.33803688  0.66332803  0.62605113     0.86500
O287        O  0.30657970  0.66799748  0.60294885    -0.78400
C288        C  0.02897312  0.98699739  0.64488455     0.32600
C289        C  0.44646367  0.55806037  0.64628498     0.32600
C290        C  0.48079585  0.97054359  0.63164455    -0.03600
C291        C  0.01508243  0.00514674  0.67935229    -0.04400
C292        C  0.02744863  0.53797078  0.61981975    -0.04300
C293        C  0.43774816  0.00646268  0.63404483    -0.03600
C294        C  0.47833872  0.53958999  0.67607374    -0.04400
C295        C  0.98428552  0.57211615  0.62632406    -0.04300
C296        C  0.39883649  0.98242033  0.63904445    -0.29600
N297        N  0.41669026  0.93426812  0.63858745     0.16900
C298        C  0.46645463  0.92697058  0.63508499    -0.29700
H299        H  0.49106764  0.89250086  0.63765880     0.18800
C300        C  0.47758087  0.54752818  0.70924395    -0.28600
N301        N  0.01003216  0.51012773  0.72415763     0.15600
C302        C  0.03554727  0.99641588  0.70961655    -0.28600
C303        C  0.99788711  0.61636146  0.62784093    -0.28900
N304        N  0.04693799  0.61112130  0.62220914     0.16100
H305        H  0.97475120  0.64933578  0.63655935     0.18700
C306        C  0.06568897  0.56359410  0.61818551    -0.28900
H307        H  0.10496483  0.54799337  0.61854957     0.18700
H308        H  0.06923217  0.97141060  0.71577194     0.18700
H309        H  0.36117141  0.99893412  0.64569720     0.18800
H310        H  0.44941870  0.57188447  0.72277513     0.18700
O311        O  0.01654086  0.52191940  0.98103659    -0.75900
C312        C  0.11291283  0.56060351  0.90468223     0.85100
O313        O  0.40766455  0.56455998  0.88867874    -0.77000
O314        O  0.03778192  0.49361301  0.82666422    -0.78500
O315        O  0.10409962  0.89320112  0.91908504    -0.78300
O316        O  0.03904150  0.95067425  0.98620709    -0.76900
Zn317      Zn  0.01535240  0.54361970  0.93456898     1.55700
O318        O  0.11965461  0.93002633  0.87347828    -0.78300
Cd319      Cd  0.03696419  0.93417129  0.93630242     1.59700
Cd320      Cd  0.45591270  0.50139392  0.88001094     1.59600
O321        O  0.46069708  0.89223860  0.92291051    -0.78300
O322        O  0.01131880  0.48910621  0.90622101    -1.88800
Cd323      Cd  0.06670182  0.48064191  0.87342045     1.59900
O324        O  0.40745858  0.94734927  0.89556316    -0.78300
O325        O  0.11429588  0.52780015  0.88311241    -0.76900
C326        C  0.40841948  0.59716404  0.90990271     0.85600
C327        C  0.01907800  0.48271732  0.99645296     0.85300
O328        O  0.07788537  0.56968261  0.92561413    -0.75900
C329        C  0.12987499  0.89535095  0.89328221     0.86100
O330        O  0.44393773  0.59498580  0.93014794    -0.76000
C331        C  0.41801412  0.90714625  0.90982978     0.86200
C332        C  0.99345378  0.50036191  0.81546928     0.86500
O333        O  0.46794904  0.50253807  0.83109615    -0.78400
C334        C  0.29776227  0.69639561  0.88711722     0.32600
C335        C  0.22234097  0.77320669  0.89396983     0.32600
C336        C  0.31221340  0.74174022  0.90141892    -0.03600
C337        C  0.27117126  0.71473341  0.85537603    -0.04400
C338        C  0.25497078  0.68806035  0.90892562    -0.04300
C339        C  0.27405563  0.78124549  0.90491815    -0.03600
C340        C  0.23210489  0.75404422  0.85856814    -0.04400
C341        C  0.21619304  0.72778522  0.91274170    -0.04300
C342        C  0.29636820  0.81980649  0.91262335    -0.29600
N343        N  0.34670084  0.80404746  0.91424733     0.16900
C344        C  0.35642879  0.75638665  0.90753496    -0.29700
H345        H  0.39332885  0.73471272  0.90495687     0.18800
C346        C  0.21897384  0.76953780  0.82714264    -0.28600
N347        N  0.24908929  0.74076865  0.80548782     0.15600
C348        C  0.28110072  0.70766482  0.82266005    -0.28600
C349        C  0.17370653  0.70957424  0.91874709    -0.28900
N350        N  0.18502328  0.66111727  0.91872143     0.16100
H351        H  0.13602254  0.72996816  0.91901731     0.18700
C352        C  0.23415310  0.64758685  0.91197480    -0.28900
H353        H  0.25274759  0.61118803  0.90658691     0.18700
H354        H  0.31147164  0.68205236  0.81210305     0.18700
H355        H  0.27747852  0.85674061  0.91532226     0.18800
H356        H  0.19234055  0.80137772  0.82072334     0.18700
O357        O  0.44866823  0.91037856  0.10669511    -0.75900
C358        C  0.52630355  0.49148744  0.03273078     0.85100
O359        O  0.12229297  0.94525264  0.15875420    -0.77000
O360        O  0.07184447  0.58367479  0.10101948    -0.78500
O361        O  0.40758971  0.58035068  0.13408764    -0.78300
O362        O  0.40027463  0.96385357  0.13851264    -0.76900
Zn363      Zn  0.51153999  0.93766782  0.09878463     1.55700
O364        O  0.44863105  0.61228714  0.09596071    -0.78300
Cd365      Cd  0.45436952  0.51875011  0.14702991     1.59700
Cd366      Cd  0.06358324  0.49435967  0.15405807     1.59600
O367        O  0.46345337  0.52745620  0.19583271    -0.78300
O368        O  0.51838300  0.50770903  0.12282004    -1.88800
Cd369      Cd  0.51570856  0.56228752  0.09185214     1.59900
O370        O  0.03627155  0.51073518  0.20097239    -0.78300
O371        O  0.51978249  0.53364272  0.04519741    -0.76900
C372        C  0.12518667  0.90773447  0.14106561     0.85600
C373        C  0.40821273  0.92462932  0.12243698     0.85300
O374        O  0.51835197  0.94677239  0.04939844    -0.75900
C375        C  0.41051998  0.61349832  0.11409326     0.86100
O376        O  0.09242908  0.90400134  0.11935194    -0.76000
C377        C  0.50056872  0.53074008  0.21361512     0.86200
C378        C  0.10756576  0.57458280  0.12141052     0.86500
O379        O  0.10986141  0.54170793  0.14258188    -0.78400
C380        C  0.21738021  0.78532635  0.13334285     0.32600
C381        C  0.29448659  0.70922284  0.13662832     0.32600
C382        C  0.26805316  0.79478930  0.12183367    -0.03600
C383        C  0.22927769  0.76464102  0.16773810    -0.04400
C384        C  0.21121395  0.74060887  0.11325718    -0.04300
C385        C  0.30714056  0.75567729  0.12346798    -0.03600
C386        C  0.26908525  0.72590254  0.16927203    -0.04400
C387        C  0.25074372  0.70101036  0.11530212    -0.04300
C388        C  0.35066522  0.77223476  0.11922500    -0.29600
N389        N  0.33952606  0.82037325  0.11535350     0.16900
C390        C  0.28916479  0.83477875  0.11727789    -0.29700
H391        H  0.26948876  0.87163276  0.11700719     0.18800
C392        C  0.28006417  0.71760607  0.20170013    -0.28600
N393        N  0.24778809  0.74939033  0.22001973     0.15600
C394        C  0.21665544  0.77851868  0.19953475    -0.28600
C395        C  0.22983655  0.66045960  0.11196764    -0.28900
N396        N  0.18031755  0.67393236  0.10643461     0.16100
H397        H  0.24873326  0.62398300  0.11636547     0.18700
C398        C  0.16870141  0.72229638  0.10760419    -0.28900
H399        H  0.13092868  0.74242786  0.10857475     0.18700
H400        H  0.18938868  0.80947949  0.20705587     0.18700
H401        H  0.38800265  0.75141416  0.12136604     0.18800
H402        H  0.31098192  0.69196307  0.21132639     0.18700
C403        C  0.44571375  0.57275614  0.38311210     0.32600
C404        C  0.02040535  0.99636543  0.39176893     0.32600
C405        C  0.42875823  0.52741517  0.39497539    -0.03600
C406        C  0.47588346  0.55479371  0.35236466    -0.04400
C407        C  0.98583176  0.57833071  0.40687091    -0.04300
C408        C  0.46592004  0.98642644  0.39885382    -0.03600
C409        C  0.01446708  0.51559945  0.35539905    -0.04400
C410        C  0.02438186  0.53763926  0.41097006    -0.04300
C411        C  0.44330263  0.94758550  0.40323124    -0.29600
N412        N  0.39321955  0.96324165  0.40278895     0.16900
C413        C  0.38380542  0.01136645  0.39801706    -0.29700
H414        H  0.34726175  0.53400808  0.39524971     0.18800
C415        C  0.04004754  0.01093812  0.32920797    -0.28600
N416        N  0.51377793  0.53448923  0.30505048     0.15600
C417        C  0.47649858  0.56618950  0.31980169    -0.28600
C418        C  0.06707673  0.55586864  0.41724018    -0.28900
N419        N  0.05647665  0.60434952  0.41796592     0.16100
H420        H  0.10474549  0.53558475  0.41636242     0.18700
C421        C  0.00742679  0.61832243  0.41116923    -0.28900
H422        H  0.98945413  0.65473312  0.40575325     0.18700
H423        H  0.45172418  0.59504023  0.30773223     0.18700
H424        H  0.46188765  0.91049628  0.40524986     0.16800
H425        H  0.07034259  0.98149905  0.32355392     0.18700
O426        O  0.16865767  0.69304488  0.42197501    -0.75900
C427        C  0.33037917  0.67184114  0.40051524     0.85100
O428        O  0.24118696  0.81612417  0.48017423    -0.77000
O429        O  0.32786074  0.82281545  0.37670453    -0.78500
O430        O  0.17851802  0.78900831  0.32705836    -0.78300
O431        O  0.12095522  0.74424605  0.38882957    -0.76900
Zn432      Zn  0.23055760  0.72271154  0.42948268     1.55700
O433        O  0.26115382  0.76874251  0.32316731    -0.78300
Cd434      Cd  0.16517395  0.79365376  0.37732428     1.59700
Cd435      Cd  0.23335759  0.83587035  0.43169548     1.59600
O436        O  0.12564821  0.86163830  0.38921725    -0.78300
O437        O  0.22872626  0.77954530  0.40269523    -1.88800
Cd438      Cd  0.28586834  0.76937995  0.37114431     1.59900
O439        O  0.16979669  0.88788599  0.42885484    -0.78300
O440        O  0.33291568  0.70450240  0.37983050    -0.76900
C441        C  0.23895616  0.77654858  0.49394011     0.85600
C442        C  0.12826142  0.70638170  0.40605651     0.85300
O443        O  0.29365426  0.67444904  0.41996572    -0.75900
C444        C  0.21811373  0.77775145  0.31003391     0.86100
O445        O  0.23393527  0.73937032  0.47756477    -0.76000
C446        C  0.13183618  0.89324392  0.41040496     0.86200
C447        C  0.32532356  0.85853306  0.39614866     0.86500
O448        O  0.29192917  0.86800928  0.41813702    -0.78400
C449        C  0.08816439  0.67781086  0.40693616    -0.13800
C450        C  0.09416054  0.63372238  0.42001406    -0.29000
H451        H  0.05352313  0.69280402  0.39483152     0.15200
H452        H  0.12996412  0.61801769  0.43051413     0.15800
C453        C  0.09458862  0.93803570  0.41373737    -0.13800
C454        C  0.05806222  0.94989403  0.39187566    -0.29000
H455        H  0.09802228  0.96159809  0.43417905     0.15200
H456        H  0.05427155  0.92456737  0.37242556     0.15800
C457        C  0.37161774  0.63032732  0.40319740    -0.13800
C458        C  0.40418257  0.61580309  0.37894971    -0.29000
H459        H  0.37476283  0.61025338  0.42577606     0.15200
H460        H  0.40014473  0.63437491  0.35579472     0.15800
C461        C  0.35577100  0.93415965  0.40538173    -0.13800
C462        C  0.36302600  0.88914532  0.39327564    -0.29000
H463        H  0.32006808  0.95002326  0.41610354     0.15200
H464        H  0.39709101  0.87479906  0.38011910     0.15800
C465        C  0.25166793  0.75369360  0.25498834    -0.13800
C466        C  0.21356516  0.77505246  0.27400095    -0.29000
H467        H  0.28643906  0.73703056  0.26642856     0.15200
H468        H  0.17771451  0.78923296  0.26307088     0.15800
C469        C  0.52618641  0.53096914  0.27106634    -0.13800
C470        C  0.49077918  0.54093450  0.24837962    -0.29000
H471        H  0.06679745  0.02938109  0.26584364     0.15200
H472        H  0.45236676  0.55322663  0.25582781     0.15800
C473        C  0.14774227  0.60277918  0.12094889    -0.13800
C474        C  0.14354027  0.64394465  0.10435559    -0.29000
H475        H  0.18024364  0.59083648  0.13606018     0.15200
H476        H  0.10933775  0.65751812  0.09120775     0.15800
C477        C  0.16845815  0.86817633  0.14601268    -0.13800
C478        C  0.17344698  0.82649809  0.12959490    -0.29000
H479        H  0.19693060  0.87347835  0.16338617     0.15200
H480        H  0.14455693  0.82185603  0.11238973     0.15800
C481        C  0.33792948  0.66743337  0.13795018    -0.13800
C482        C  0.36826793  0.65430740  0.11217464    -0.29000
H483        H  0.34523108  0.64823783  0.16075501     0.15200
H484        H  0.36284351  0.67487297  0.08983038     0.15800
C485        C  0.37681403  0.84967057  0.11247130    -0.13800
C486        C  0.36881902  0.89558780  0.12257934    -0.29000
H487        H  0.41369239  0.83274572  0.10406848     0.15200
H488        H  0.33307331  0.91174149  0.13303165     0.15800
C489        C  0.14834433  0.63106269  0.92096599    -0.13800
C490        C  0.15296576  0.58893322  0.90487607    -0.29000
H491        H  0.11405435  0.64504741  0.93403376     0.15200
H492        H  0.18545463  0.57638487  0.88978023     0.15800
C493        C  0.36720071  0.63851330  0.91119501    -0.13800
C494        C  0.34002434  0.65395172  0.88469116    -0.29000
H495        H  0.36000965  0.65797510  0.93416544     0.15200
H496        H  0.34842401  0.63598445  0.86131267     0.15800
C497        C  0.17310596  0.85684386  0.88566092    -0.13800
C498        C  0.17936939  0.81436284  0.90048122    -0.29000
H499        H  0.19927719  0.86291200  0.86700629     0.15200
H500        H  0.15199098  0.80891565  0.91848913     0.15800
C501        C  0.38525623  0.83196496  0.91851947    -0.13800
C502        C  0.37815481  0.87842484  0.91039004    -0.29000
H503        H  0.42227752  0.81361522  0.92549417     0.15200
H504        H  0.34191594  0.89580616  0.90144645     0.15800
C505        C  0.98410105  0.50801852  0.78040040    -0.13800
C506        C  0.02067290  0.50316040  0.75825630    -0.29000
H507        H  0.94562911  0.51739166  0.77249617     0.15200
H508        H  0.05438331  0.01910248  0.77328743     0.15800
C509        C  0.21557959  0.76759922  0.75149717    -0.13800
C510        C  0.25347171  0.74659438  0.77063837    -0.29000
H511        H  0.17927601  0.78077182  0.76225958     0.15200
H512        H  0.28850803  0.73048797  0.75913085     0.15800
C513        C  0.37627248  0.61875842  0.62557316    -0.13800
C514        C  0.40169983  0.59840243  0.65161312    -0.29000
H515        H  0.38443552  0.60163772  0.60186103     0.15200
H516        H  0.39354560  0.61367464  0.67580740     0.15800
C517        C  0.07340203  0.94605644  0.64365232    -0.13800
C518        C  0.08945607  0.92227380  0.61619362    -0.29000
H519        H  0.09069699  0.93276574  0.66644822     0.15200
H520        H  0.07483531  0.93562752  0.59271657     0.15800
C521        C  0.34391827  0.89949300  0.63073194    -0.13800
C522        C  0.38946323  0.89621534  0.64324637    -0.29000
H523        H  0.32726575  0.93225071  0.61824593     0.15200
H524        H  0.40844793  0.86240149  0.65339598     0.15800
C525        C  0.11870253  0.64677743  0.61243968    -0.13800
C526        C  0.07412984  0.64933038  0.62618089    -0.29000
H527        H  0.13436647  0.61543139  0.59782682     0.15200
H528        H  0.05696563  0.68162522  0.63939279     0.15800
O529        O  0.65698975  0.37324914  0.61323846    -0.75900
C530        C  0.81407968  0.36068422  0.62916239     0.85100
O531        O  0.74409363  0.23699896  0.54550729    -0.77000
O532        O  0.84077625  0.19568670  0.64777260    -0.78500
O533        O  0.69043455  0.25976702  0.70118143    -0.78300
O534        O  0.62309337  0.32994079  0.64871597    -0.76900
Zn535      Zn  0.72209785  0.32907544  0.59999872     1.55700
O536        O  0.77091132  0.26359400  0.70464023    -0.78300
Cd537      Cd  0.67371877  0.26609709  0.65182416     1.59700
Cd538      Cd  0.74572151  0.21493284  0.59330124     1.59600
O539        O  0.64179231  0.20842348  0.63680075    -0.78300
O540        O  0.73407366  0.26956822  0.62519517    -1.88800
Cd541      Cd  0.79357123  0.26348308  0.65531798     1.59900
O542        O  0.69277019  0.17355952  0.59748672    -0.78300
O543        O  0.82866893  0.32315108  0.64652596    -0.76900
C544        C  0.73458779  0.27837440  0.53267448     0.85600
C545        C  0.62263267  0.36876350  0.63331028     0.85300
O546        O  0.77507132  0.36568430  0.61167694    -0.75900
C547        C  0.72936553  0.26071592  0.71803964     0.86100
O548        O  0.72506150  0.31658949  0.55016432    -0.76000
C549        C  0.65482194  0.17528945  0.61547657     0.86200
C550        C  0.84193468  0.16329459  0.62565352     0.86500
O551        O  0.81077363  0.16782365  0.60238906    -0.78400
C552        C  0.52929017  0.49089339  0.63337899     0.32600
C553        C  0.94617706  0.05658516  0.65039528     0.32600
C554        C  0.97859715  0.47521569  0.62255543    -0.03600
C555        C  0.52091586  0.50549801  0.66929634    -0.04400
C556        C  0.53157199  0.03024526  0.62219862    -0.04300
C557        C  0.93530859  0.50953979  0.62922948    -0.03600
C558        C  0.97249820  0.04034103  0.68254519    -0.04400
C559        C  0.48832562  0.06630189  0.62490602    -0.04300
C560        C  0.89743175  0.48385119  0.63356189    -0.29600
N561        N  0.91542958  0.43632051  0.62852262     0.16900
C562        C  0.96455025  0.43089506  0.62231919    -0.29700
H563        H  0.98922299  0.39634750  0.62069304     0.18800
C564        C  0.96708677  0.05145941  0.71531036    -0.28600
N565        N  0.50864831  0.02611108  0.72789019     0.15600
C566        C  0.54562414  0.49413385  0.69817938    -0.28600
C567        C  0.50321832  0.10975096  0.62281836    -0.28900
N568        N  0.55282168  0.10248218  0.61909478     0.16100
H569        H  0.48040222  0.14428929  0.62878726     0.18700
C570        C  0.57074482  0.05449736  0.61926604    -0.28900
H571        H  0.60961870  0.03853335  0.62243310     0.18700
H572        H  0.58001773  0.46860555  0.70151481     0.18700
H573        H  0.86102645  0.49832673  0.64353539     0.18800
H574        H  0.93791142  0.07754850  0.72663472     0.18700
O575        O  0.51505839  0.02091912  0.98128110    -0.75900
C576        C  0.60949792  0.06681649  0.90709711     0.85100
O577        O  0.90474145  0.06103498  0.90146667    -0.77000
O578        O  0.53357316  0.00546704  0.82832445    -0.78500
O579        O  0.59668228  0.39024326  0.91364120    -0.78300
O580        O  0.53399979  0.44749598  0.98168903    -0.76900
Zn581      Zn  0.51332379  0.04435776  0.93567423     1.55700
O582        O  0.62501936  0.43373363  0.87525438    -0.78300
Cd583      Cd  0.52997142  0.43307727  0.93090087     1.59700
Cd584      Cd  0.95259129  0.99771690  0.88991233     1.59600
O585        O  0.95121354  0.39994249  0.92550645    -0.78300
O586        O  0.51201199  0.98971016  0.90700680    -1.88800
Cd587      Cd  0.56437247  0.98899627  0.87345304     1.59900
O588        O  0.90146220  0.45400205  0.89527946    -0.78300
O589        O  0.61006060  0.03645331  0.88413978    -0.76900
C590        C  0.91162002  0.09825630  0.91700039     0.85600
C591        C  0.51971654  0.98126083  0.99631500     0.85300
O592        O  0.57499377  0.07379808  0.92849963    -0.75900
C593        C  0.62893328  0.39559782  0.89196497     0.86100
O594        O  0.95240492  0.09971306  0.93173079    -0.76000
C595        C  0.90980615  0.41488939  0.91115219     0.86200
C596        C  0.48968503  0.00855445  0.81709183     0.86500
O597        O  0.95758289  0.00223491  0.84016096    -0.78400
C598        C  0.80000818  0.19743720  0.89258250     0.32600
C599        C  0.72216592  0.27331749  0.89563412     0.32600
C600        C  0.81179169  0.24429241  0.90670252    -0.03600
C601        C  0.77581409  0.21399532  0.85969914    -0.04400
C602        C  0.75549991  0.18933081  0.91303596    -0.04300
C603        C  0.77219457  0.28310747  0.90825083    -0.03600
C604        C  0.73565500  0.25259695  0.86102432    -0.04400
C605        C  0.71595366  0.22863135  0.91499453    -0.04300
C606        C  0.79212347  0.32334694  0.91486132    -0.29600
N607        N  0.84239785  0.30967918  0.91779377     0.16900
C608        C  0.85458340  0.26153268  0.91291276    -0.29700
H609        H  0.89224284  0.24121578  0.91140378     0.18800
C610        C  0.72499044  0.26666288  0.82908494    -0.28600
N611        N  0.75757762  0.23790104  0.80880892     0.15600
C612        C  0.78893484  0.20620403  0.82739417    -0.28600
C613        C  0.67384041  0.21075227  0.92220295    -0.28900
N614        N  0.68587221  0.16254638  0.92430403     0.16100
H615        H  0.63595098  0.23062158  0.92184220     0.18700
C616        C  0.73517085  0.14881448  0.91776048    -0.28900
H617        H  0.75405530  0.11207593  0.91387596     0.18700
H618        H  0.82067564  0.18094088  0.81813169     0.18700
H619        H  0.77180465  0.35996266  0.91572489     0.18800
H620        H  0.69809747  0.29762436  0.82143163     0.18700
O621        O  0.94726920  0.41087755  0.10620140    -0.75900
C622        C  0.02868784  0.99515380  0.03642601     0.85100
O623        O  0.62122378  0.44479703  0.15641547    -0.77000
O624        O  0.57331359  0.08247091  0.09984734    -0.78500
O625        O  0.90773837  0.08141410  0.13742654    -0.78300
O626        O  0.89885176  0.46454323  0.13787975    -0.76900
Zn627      Zn  0.01065680  0.43784329  0.09867659     1.55700
O628        O  0.94856865  0.11331279  0.09916949    -0.78300
Cd629      Cd  0.95440708  0.01979876  0.15058027     1.59700
Cd630      Cd  0.56423792  0.99474970  0.15430680     1.59600
O631        O  0.96371031  0.02864450  0.19939619    -0.78300
O632        O  0.01840587  0.00898244  0.12634920    -1.88800
Cd633      Cd  0.01565516  0.06402674  0.09576917     1.59900
O634        O  0.53683598  0.01166909  0.20144494    -0.78300
O635        O  0.02176836  0.03714546  0.04898020    -0.76900
C636        C  0.62426184  0.40674950  0.13931660     0.85600
C637        C  0.90665678  0.42535928  0.12175576     0.85300
O638        O  0.01749119  0.44818732  0.04941063    -0.75900
C639        C  0.91050501  0.11438226  0.11724016     0.86100
O640        O  0.59217310  0.40248854  0.11723457    -0.76000
C641        C  0.00103820  0.03227069  0.21690704     0.86200
C642        C  0.60906572  0.07359167  0.12025370     0.86500
O643        O  0.61092271  0.04149704  0.14197233    -0.78400
C644        C  0.71618638  0.28433972  0.13423385     0.32600
C645        C  0.79362299  0.20896937  0.13853887     0.32600
C646        C  0.76727452  0.29467952  0.12439386    -0.03600
C647        C  0.72619695  0.26301277  0.16871796    -0.04400
C648        C  0.71173559  0.23992164  0.11325201    -0.04300
C649        C  0.80653434  0.25598803  0.12660917    -0.03600
C650        C  0.76612813  0.22443739  0.17065396    -0.04400
C651        C  0.75151810  0.20066593  0.11579471    -0.04300
C652        C  0.84984173  0.27266281  0.12165178    -0.29600
N653        N  0.83830662  0.32061395  0.11679586     0.16900
C654        C  0.78786837  0.33467754  0.11855406    -0.29700
H655        H  0.76778976  0.37129586  0.11696959     0.18800
C656        C  0.77614215  0.21583172  0.20313486    -0.28600
N657        N  0.74349291  0.24748182  0.22126648     0.15600
C658        C  0.71287554  0.27678121  0.20051600    -0.28600
C659        C  0.73135967  0.15980158  0.11154145    -0.28900
N660        N  0.68207117  0.17274253  0.10508150     0.16100
H661        H  0.75041619  0.12344520  0.11616137     0.18700
C662        C  0.66986216  0.22107480  0.10646204    -0.28900
H663        H  0.63188788  0.24076023  0.10696846     0.18700
H664        H  0.68571701  0.30794238  0.20783166     0.18700
H665        H  0.88730323  0.25202808  0.12348580     0.18800
H666        H  0.80708151  0.19041860  0.21296071     0.18700
C667        C  0.94699605  0.07494733  0.38573254     0.32600
C668        C  0.51874390  0.49443884  0.39112917     0.32600
C669        C  0.93011940  0.02845255  0.39517585    -0.03600
C670        C  0.97824437  0.05988908  0.35492109    -0.04400
C671        C  0.48702228  0.07819274  0.40767436    -0.04300
C672        C  0.96618692  0.48624434  0.39607192    -0.03600
C673        C  0.51282829  0.01393974  0.35665679    -0.04400
C674        C  0.52533641  0.03730163  0.41162295    -0.04300
C675        C  0.94386444  0.44721512  0.40069004    -0.29600
N676        N  0.89371866  0.46260847  0.40031236     0.16900
C677        C  0.88405394  0.51068983  0.39533685    -0.29700
H678        H  0.84864265  0.03484342  0.39540322     0.18800
C679        C  0.53666299  0.50337957  0.32754394    -0.28600
N680        N  0.01712493  0.04338772  0.30756452     0.15600
C681        C  0.97919916  0.07359245  0.32280601    -0.28600
C682        C  0.56846507  0.05506888  0.41719987    -0.28900
N683        N  0.55825576  0.10354635  0.41779372     0.16100
H684        H  0.60598039  0.03445531  0.41616664     0.18700
C685        C  0.50910395  0.11791336  0.41142114    -0.28900
H686        H  0.49121440  0.15440053  0.40616214     0.18700
H687        H  0.95376719  0.10242611  0.31118259     0.18700
H688        H  0.96268794  0.41029467  0.40330238     0.16800
H689        H  0.56702607  0.47367295  0.32263425     0.18700
O690        O  0.66914977  0.19360795  0.42361218    -0.75900
C691        C  0.83020102  0.17282177  0.40357483     0.85100
O692        O  0.73700627  0.32038854  0.48272368    -0.77000
O693        O  0.82677087  0.32229756  0.37737624    -0.78500
O694        O  0.67712508  0.29095611  0.32866929    -0.78300
O695        O  0.62176827  0.24392906  0.38975143    -0.76900
Zn696      Zn  0.73005194  0.22448801  0.43213945     1.55700
O697        O  0.75934501  0.26765637  0.32441350    -0.78300
Cd698      Cd  0.66487341  0.29412080  0.37899409     1.59700
Cd699      Cd  0.73275073  0.33754217  0.43331811     1.59600
O700        O  0.62447587  0.36105266  0.39123632    -0.78300
O701        O  0.72815054  0.28052904  0.40464181    -1.88800
Cd702      Cd  0.78453926  0.26904348  0.37250186     1.59900
O703        O  0.66977044  0.38991218  0.42904810    -0.78300
O704        O  0.83165127  0.20440248  0.38189227    -0.76900
C705        C  0.73407145  0.28108381  0.49666811     0.85600
C706        C  0.62926032  0.20617155  0.40702545     0.85300
O707        O  0.79413666  0.17631140  0.42369125    -0.75900
C708        C  0.71624978  0.27828162  0.31142747     0.86100
O709        O  0.73066436  0.24341601  0.48022624    -0.76000
C710        C  0.63108707  0.39379563  0.41136339     0.86200
C711        C  0.82529256  0.35796192  0.39675694     0.86500
O712        O  0.79258824  0.36794832  0.41921071    -0.78400
C713        C  0.58976391  0.17703307  0.40724536    -0.13800
C714        C  0.59608219  0.13269290  0.41984543    -0.29000
H715        H  0.55511593  0.19203049  0.39515220     0.15200
H716        H  0.63193250  0.11688998  0.43024110     0.15800
C717        C  0.59342841  0.43821807  0.41411972    -0.13800
C718        C  0.55620737  0.44808800  0.39257891    -0.29000
H719        H  0.59724547  0.46316133  0.43365532     0.15200
H720        H  0.55194929  0.42127897  0.37423582     0.15800
C721        C  0.87177748  0.13137546  0.40627701    -0.13800
C722        C  0.90524364  0.11809305  0.38229481    -0.29000
H723        H  0.87445003  0.11040222  0.42845346     0.15200
H724        H  0.90178041  0.13785869  0.35960939     0.15800
C725        C  0.85632832  0.43364177  0.40401111    -0.13800
C726        C  0.86339365  0.38802163  0.39308919    -0.29000
H727        H  0.82066397  0.45010633  0.41453056     0.15200
H728        H  0.89733502  0.37289568  0.38003625     0.15800
C729        C  0.74746506  0.25153173  0.25629894    -0.13800
C730        C  0.71096689  0.27585369  0.27536815    -0.29000
H731        H  0.78123011  0.23252297  0.26780562     0.15200
H732        H  0.67583383  0.29269811  0.26455968     0.15800
C733        C  0.02830243  0.04064142  0.27346629    -0.13800
C734        C  0.99170030  0.04339466  0.25161353    -0.29000
H735        H  0.56391575  0.51471444  0.26393545     0.15200
H736        H  0.95328458  0.05097493  0.25989275     0.15800
C737        C  0.64966139  0.10132792  0.11932823    -0.13800
C738        C  0.64568347  0.14234551  0.10255928    -0.29000
H739        H  0.68201124  0.08952110  0.13459675     0.15200
H740        H  0.61158876  0.15578381  0.08926306     0.15800
C741        C  0.66687724  0.36715556  0.14556913    -0.13800
C742        C  0.67230214  0.32515250  0.12962839    -0.29000
H743        H  0.69462138  0.37276489  0.16340265     0.15200
H744        H  0.64425301  0.32026272  0.11185541     0.15800
C745        C  0.83723872  0.16763978  0.14041701    -0.13800
C746        C  0.86816456  0.15484607  0.11496283    -0.29000
H747        H  0.84399595  0.14836520  0.16322382     0.15200
H748        H  0.86307271  0.17540275  0.09260215     0.15800
C749        C  0.87533779  0.35004839  0.11294571    -0.13800
C750        C  0.86703164  0.39651571  0.12182814    -0.29000
H751        H  0.91246346  0.33279311  0.10520754     0.15200
H752        H  0.83103585  0.41313517  0.13171094     0.15800
C753        C  0.64928800  0.13264726  0.92734553    -0.13800
C754        C  0.65038203  0.09401823  0.90815834    -0.29000
H755        H  0.61699896  0.14518488  0.94267903     0.15200
H756        H  0.68088705  0.08380378  0.89103772     0.15800
C757        C  0.87116110  0.14087130  0.91794287    -0.13800
C758        C  0.84306328  0.15502222  0.89149804    -0.29000
H759        H  0.86544081  0.16203235  0.94028454     0.15200
H760        H  0.85107164  0.13531823  0.86869460     0.15800
C761        C  0.67276155  0.35684825  0.88563366    -0.13800
C762        C  0.67762783  0.31395155  0.89987230    -0.29000
H763        H  0.70143088  0.36363248  0.86900646     0.15200
H764        H  0.64829856  0.30819555  0.91625579     0.15800
C765        C  0.87877150  0.33996605  0.92163136    -0.13800
C766        C  0.87016637  0.38599352  0.91198009    -0.29000
H767        H  0.91587196  0.32347974  0.92971259     0.15200
H768        H  0.83417462  0.40186281  0.90191960     0.15800
C769        C  0.48013909  0.01880102  0.78249110    -0.13800
C770        C  0.51686783  0.02365743  0.76217287    -0.29000
H771        H  0.44269408  0.02050502  0.77315263     0.15200
H772        H  0.56998977  0.50546756  0.76355883     0.15800
C773        C  0.72473933  0.25896248  0.75416661    -0.13800
C774        C  0.76336606  0.24250988  0.77395915    -0.29000
H775        H  0.68770884  0.26861479  0.76460977     0.15200
H776        H  0.79967168  0.22909707  0.76320191     0.15800
C777        C  0.88035340  0.11885256  0.62570862    -0.13800
C778        C  0.90191664  0.09801556  0.65279324    -0.29000
H779        H  0.89102625  0.10197003  0.60222626     0.15200
H780        H  0.89054172  0.11356314  0.67651455     0.15800
C781        C  0.57490150  0.45245431  0.62598503    -0.13800
C782        C  0.58103673  0.40910976  0.64014814    -0.29000
H783        H  0.60216196  0.45988401  0.60852259     0.15200
H784        H  0.55400488  0.40281872  0.65817202     0.15800
C785        C  0.84109683  0.40122691  0.62875548    -0.13800
C786        C  0.89019385  0.39662247  0.63351316    -0.29000
H787        H  0.82017655  0.43579796  0.62111564     0.15200
H788        H  0.91218527  0.36130272  0.63843225     0.15800
C789        C  0.62634609  0.13666661  0.61131985    -0.13800
C790        C  0.58053745  0.14015399  0.62336210    -0.29000
H791        H  0.64292839  0.10505805  0.59723959     0.15200
H792        H  0.56268839  0.17312232  0.63557054     0.15800
O793        O  0.66509522  0.87223302  0.59730641    -0.75900
C794        C  0.81734653  0.86081194  0.62696849     0.85100
O795        O  0.74471341  0.73301968  0.54230404    -0.77000
O796        O  0.84051286  0.69591929  0.64625310    -0.78500
O797        O  0.68735138  0.77356408  0.69737305    -0.78300
O798        O  0.62568169  0.84307753  0.63767095    -0.76900
Zn799      Zn  0.73070737  0.82767807  0.59332047     1.55700
O800        O  0.76979178  0.76657300  0.70056031    -0.78300
Cd801      Cd  0.67244641  0.77702414  0.64710368     1.59700
Cd802      Cd  0.74547183  0.71567682  0.59120305     1.59600
O803        O  0.63752715  0.71986773  0.63381389    -0.78300
O804        O  0.73568620  0.77202778  0.62132807    -1.88800
Cd805      Cd  0.79417840  0.76458648  0.65214939     1.59900
O806        O  0.69005425  0.67869637  0.59742511    -0.78300
O807        O  0.82993707  0.82361079  0.64488222    -0.76900
C808        C  0.74191773  0.77348860  0.52865502     0.85600
C809        C  0.62839370  0.87531921  0.61653725     0.85300
O810        O  0.78089179  0.86538257  0.60733653    -0.75900
C811        C  0.72730750  0.76946169  0.71412320     0.86100
O812        O  0.73886741  0.81198360  0.54528107    -0.76000
C813        C  0.65064540  0.68419874  0.61431997     0.86200
C814        C  0.83999676  0.66264036  0.62501094     0.86500
O815        O  0.80843504  0.66707577  0.60200008    -0.78400
C816        C  0.52953926  0.98508284  0.64216739     0.32600
C817        C  0.94450928  0.55515969  0.64700360     0.32600
C818        C  0.98087946  0.97326466  0.63242721    -0.03600
C819        C  0.51739389  0.00567541  0.67621202    -0.04400
C820        C  0.52778755  0.53956203  0.61688922    -0.04300
C821        C  0.93765877  0.00891405  0.63508385    -0.03600
C822        C  0.97408496  0.53468246  0.67719823    -0.04400
C823        C  0.48463438  0.57401989  0.62357163    -0.04300
C824        C  0.89869581  0.98437561  0.63823618    -0.29600
N825        N  0.91679555  0.93631955  0.63641719     0.16900
C826        C  0.96663710  0.92944864  0.63378212    -0.29700
H827        H  0.99130121  0.89492261  0.63589483     0.18800
C828        C  0.97041465  0.53983546  0.71054410    -0.28600
N829        N  0.51866149  0.51939841  0.72242245     0.15600
C830        C  0.53808985  0.99762236  0.70645820    -0.28600
C831        C  0.49820386  0.61830092  0.62371089    -0.28900
N832        N  0.54715548  0.61285403  0.61760023     0.16100
H833        H  0.47542403  0.65144764  0.63246057     0.18700
C834        C  0.56579810  0.56520988  0.61409324    -0.28900
H835        H  0.60503439  0.54950058  0.61454796     0.18700
H836        H  0.57105673  0.97184173  0.71289987     0.18700
H837        H  0.86083662  0.00026347  0.64484903     0.18800
H838        H  0.94134937  0.56344904  0.72384003     0.18700
O839        O  0.51532062  0.52736072  0.98140420    -0.75900
C840        C  0.60019470  0.58417702  0.90999998     0.85100
O841        O  0.90835635  0.57194217  0.89228453    -0.77000
O842        O  0.54752692  0.50873384  0.82624762    -0.78500
O843        O  0.59023826  0.88273959  0.91363353    -0.78300
O844        O  0.52484825  0.94093610  0.98117001    -0.76900
Zn845      Zn  0.50950230  0.54925408  0.93543845     1.55700
O846        O  0.61214259  0.92431518  0.87183872    -0.78300
Cd847      Cd  0.52261351  0.92630124  0.93057794     1.59700
Cd848      Cd  0.94584045  0.50292120  0.88325137     1.59600
O849        O  0.98265091  0.89250397  0.92977183    -0.78300
O850        O  0.51809494  0.49505228  0.90572329    -1.88800
Cd851      Cd  0.57369789  0.49743951  0.87419420     1.59900
O852        O  0.92223002  0.93805743  0.90121817    -0.78300
O853        O  0.61055425  0.55191171  0.88789964    -0.76900
C854        C  0.91798221  0.60527812  0.91071485     0.85600
C855        C  0.52556368  0.48798422  0.99673291     0.85300
O856        O  0.56277242  0.58687655  0.92864364    -0.75900
C857        C  0.61961796  0.88765264  0.89000097     0.86100
O858        O  0.95652344  0.59918225  0.92878713    -0.76000
C859        C  0.93993781  0.89931451  0.91620690     0.86200
C860        C  0.50476552  0.50826842  0.81386686     0.86500
O861        O  0.95574114  0.50184448  0.83374835    -0.78400
C862        C  0.81118103  0.70831105  0.88702041     0.32600
C863        C  0.72523666  0.77405342  0.89222960     0.32600
C864        C  0.81590964  0.75514322  0.90467685    -0.03600
C865        C  0.78639550  0.72612024  0.85456016    -0.04400
C866        C  0.76906770  0.69141312  0.90526261    -0.04300
C867        C  0.77159251  0.78926063  0.90723599    -0.03600
C868        C  0.74205760  0.75950796  0.85697383    -0.04400
C869        C  0.72490912  0.72548307  0.90824331    -0.04300
C870        C  0.78544255  0.83355345  0.90932955    -0.29600
N871        N  0.83574300  0.82750699  0.90957004     0.16900
C872        C  0.85459457  0.77998584  0.90575919    -0.29700
H873        H  0.89313703  0.76502011  0.90033275     0.18800
C874        C  0.72727634  0.77228139  0.82540212    -0.28600
N875        N  0.76175622  0.74787702  0.80426404     0.15600
C876        C  0.79790267  0.71989984  0.82196646    -0.28600
C877        C  0.68680203  0.70008482  0.90916633    -0.28900
N878        N  0.70586543  0.65252828  0.90745063     0.16100
H879        H  0.64771598  0.71546697  0.90640476     0.18700
C880        C  0.75565115  0.64690658  0.90414402    -0.28900
H881        H  0.77979116  0.61339333  0.89745454     0.18700
H882        H  0.83087387  0.69745509  0.81178594     0.18700
H883        H  0.76064649  0.86806442  0.90787977     0.18800
H884        H  0.69513689  0.79874154  0.81848608     0.18700
O885        O  0.96796871  0.91362518  0.11100502    -0.75900
C886        C  0.01761037  0.48562339  0.03231415     0.85100
O887        O  0.60789210  0.92639716  0.15328833    -0.77000
O888        O  0.57565835  0.59753711  0.09918277    -0.78500
O889        O  0.90214944  0.58035073  0.13398671    -0.78300
O890        O  0.91694622  0.96518827  0.14268321    -0.76900
Zn891      Zn  0.02792034  0.94689848  0.10323982     1.55700
O892        O  0.94650920  0.60720868  0.09532096    -0.78300
Cd893      Cd  0.94270716  0.51465347  0.14634398     1.59700
Cd894      Cd  0.57256370  0.50971165  0.15535380     1.59600
O895        O  0.95387816  0.52027921  0.19537652    -0.78300
O896        O  0.00715548  0.49881421  0.12229797    -1.88800
Cd897      Cd  0.00980981  0.55319495  0.09212631     1.59900
O898        O  0.54461452  0.52557237  0.20218030    -0.78300
O899        O  0.01482702  0.52704937  0.04522514    -0.76900
C900        C  0.60495542  0.88924918  0.13625926     0.85600
C901        C  0.92699396  0.92609304  0.12660699     0.85300
O902        O  0.03284085  0.95749180  0.05387543    -0.75900
C903        C  0.90834437  0.61226170  0.11370945     0.86100
O904        O  0.57060293  0.88887525  0.11525987    -0.76000
C905        C  0.99231361  0.51969381  0.21282835     0.86200
C906        C  0.61097705  0.59140327  0.12004359     0.86500
O907        O  0.61432609  0.55989767  0.14224971    -0.78400
C908        C  0.72913846  0.79749573  0.13390228     0.32600
C909        C  0.80124725  0.71709806  0.13618395     0.32600
C910        C  0.78149361  0.80333726  0.12301418    -0.03600
C911        C  0.73930845  0.77499204  0.16777907    -0.04400
C912        C  0.71938769  0.75487779  0.11256794    -0.04300
C913        C  0.81810659  0.76218862  0.12410376    -0.03600
C914        C  0.77626361  0.73395541  0.16884766    -0.04400
C915        C  0.75676405  0.71322172  0.11418191    -0.04300
C916        C  0.86339814  0.77563512  0.11972546    -0.29600
N917        N  0.85551278  0.82393124  0.11631740     0.16900
C918        C  0.80560950  0.84125794  0.11838861    -0.29700
H919        H  0.78827333  0.87882428  0.11823523     0.18800
C920        C  0.78512624  0.72290512  0.20115702    -0.28600
N921        N  0.75418744  0.75548168  0.21972801     0.15600
C922        C  0.72606933  0.78770505  0.19959172    -0.28600
C923        C  0.73354650  0.67456261  0.10963048    -0.28900
N924        N  0.68438168  0.69055278  0.10421720     0.16100
H925        H  0.75069720  0.63740143  0.11339890     0.18700
C926        C  0.67542791  0.73906213  0.10603322    -0.28900
H927        H  0.63846266  0.76085723  0.10627644     0.18700
H928        H  0.70041927  0.81963346  0.20744456     0.18700
H929        H  0.89965381  0.75257353  0.12150317     0.18800
H930        H  0.81364001  0.69461076  0.21064026     0.18700
C931        C  0.94557174  0.57192472  0.38162831     0.32600
C932        C  0.51863208  0.99315538  0.39086666     0.32600
C933        C  0.92871401  0.52599169  0.39235588    -0.03600
C934        C  0.97657887  0.55513265  0.35099759    -0.04400
C935        C  0.48683584  0.57963596  0.40755691    -0.04300
C936        C  0.96756632  0.98851802  0.39805724    -0.03600
C937        C  0.51339076  0.51498575  0.35686012    -0.04400
C938        C  0.52519808  0.53876187  0.41181587    -0.04300
C939        C  0.94524977  0.94931250  0.40187132    -0.29600
N940        N  0.89508976  0.96469173  0.40177236     0.16900
C941        C  0.88544539  0.01301743  0.39781788    -0.29700
H942        H  0.84726256  0.53234649  0.39241797     0.18800
C943        C  0.53431081  0.00094254  0.32697990    -0.28600
N944        N  0.01229457  0.53324695  0.30324103     0.15600
C945        C  0.97542369  0.56519790  0.31814702    -0.28600
C946        C  0.56840195  0.55663745  0.41682556    -0.28900
N947        N  0.55834586  0.60508654  0.41657851     0.16100
H948        H  0.60587742  0.53593016  0.41576191     0.18700
C949        C  0.50915265  0.61937580  0.41043210    -0.28900
H950        H  0.49143320  0.65570197  0.40456933     0.18700
H951        H  0.94893285  0.59244183  0.30584816     0.18700
H952        H  0.96412752  0.91230670  0.40380412     0.16800
H953        H  0.56386435  0.97056010  0.32191258     0.18700
O954        O  0.66995473  0.69375340  0.42008950    -0.75900
C955        C  0.83097474  0.67135751  0.39955997     0.85100
O956        O  0.74241056  0.81588443  0.47925623    -0.77000
O957        O  0.83077588  0.82298775  0.37743294    -0.78500
O958        O  0.68209620  0.79233235  0.32594445    -0.78300
O959        O  0.62385064  0.74363309  0.38544018    -0.76900
Zn960      Zn  0.73163988  0.72309744  0.42831045     1.55700
O961        O  0.76473250  0.77078580  0.32302233    -0.78300
Cd962      Cd  0.66758100  0.79411862  0.37589538     1.59700
Cd963      Cd  0.73453369  0.83656957  0.43095568     1.59600
O964        O  0.62657666  0.86080565  0.38865331    -0.78300
O965        O  0.73052626  0.78014787  0.40190015    -1.88800
Cd966      Cd  0.78845077  0.76996811  0.37111449     1.59900
O967        O  0.67018339  0.88790387  0.42823045    -0.78300
O968        O  0.83441815  0.70440317  0.37936632    -0.76900
C969        C  0.74015606  0.77618476  0.49287136     0.85600
C970        C  0.63052244  0.70624104  0.40309736     0.85300
O971        O  0.79402885  0.67417205  0.41881329    -0.75900
C972        C  0.72213737  0.78110077  0.30941560     0.86100
O973        O  0.73490563  0.73915636  0.47641425    -0.76000
C974        C  0.63207019  0.89249146  0.40992190     0.86200
C975        C  0.82740823  0.85935812  0.39637474     0.86500
O976        O  0.79305390  0.86947077  0.41771654    -0.78400
C977        C  0.59073667  0.67737275  0.40352541    -0.13800
C978        C  0.59633290  0.63409566  0.41771622    -0.29000
H979        H  0.55651587  0.69164865  0.39070486     0.15200
H980        H  0.63179384  0.61892091  0.42888251     0.15800
C981        C  0.59387554  0.93658644  0.41326082    -0.13800
C982        C  0.55621348  0.94668848  0.39200534    -0.29000
H983        H  0.59769970  0.96118013  0.43300875     0.15200
H984        H  0.55180502  0.92006901  0.37356640     0.15800
C985        C  0.87137669  0.62909502  0.40186304    -0.13800
C986        C  0.90404248  0.61493933  0.37763597    -0.29000
H987        H  0.87402704  0.60839353  0.42416327     0.15200
H988        H  0.90053006  0.63423014  0.35475531     0.15800
C989        C  0.85771114  0.93547960  0.40474257    -0.13800
C990        C  0.86525348  0.88994547  0.39352996    -0.29000
H991        H  0.82176458  0.95164107  0.41499522     0.15200
H992        H  0.89963375  0.87512782  0.38086508     0.15800
C993        C  0.75663710  0.75737698  0.25479425    -0.13800
C994        C  0.71876719  0.78012733  0.27338444    -0.29000
H995        H  0.78999471  0.73799721  0.26655739     0.15200
H996        H  0.68401616  0.79689552  0.26205240     0.15800
C997        C  0.02186713  0.52721269  0.26900199    -0.13800
C998        C  0.98436750  0.53051723  0.24773903    -0.29000
H999        H  0.55854155  0.01046683  0.26245283     0.15200
H1000       H  0.94627675  0.53998646  0.25648278     0.15800
C1001       C  0.65028832  0.62058254  0.11899534    -0.13800
C1002       C  0.64611399  0.66197372  0.10258894    -0.29000
H1003       H  0.68305270  0.60856769  0.13384995     0.15200
H1004       H  0.61172252  0.67618337  0.08984736     0.15800
C1005       C  0.64245394  0.84521642  0.14085671    -0.13800
C1006       C  0.69019414  0.84330428  0.13245515    -0.29000
H1007       H  0.63016709  0.81340569  0.14947760     0.15200
H1008       H  0.70104393  0.87561569  0.12335387     0.15800
C1009       C  0.84129440  0.67251441  0.13756003    -0.13800
C1010       C  0.87013897  0.65639895  0.11171512    -0.29000
H1011       H  0.84688496  0.65312878  0.16037565     0.15200
H1012       H  0.86660616  0.67680610  0.08928425     0.15800
C1013       C  0.89467701  0.85136245  0.11437504    -0.13800
C1014       C  0.88833732  0.89624715  0.12637061    -0.29000
H1015       H  0.93080544  0.83416496  0.10490991     0.15200
H1016       H  0.85312390  0.91189108  0.13774168     0.15800
C1017       C  0.67773337  0.61516899  0.90301018    -0.13800
C1018       C  0.63122422  0.62044941  0.91450238    -0.29000
H1019       H  0.69496646  0.58201868  0.89079590     0.15200
H1020       H  0.61565416  0.65214793  0.92879453     0.15800
C1021       C  0.88255221  0.65155897  0.91170418    -0.13800
C1022       C  0.85753541  0.66957042  0.88487409    -0.29000
H1023       H  0.87450532  0.66956558  0.93510597     0.15200
H1024       H  0.86745644  0.65252679  0.86136182     0.15800
C1025       C  0.66546839  0.85174599  0.88319353    -0.13800
C1026       C  0.67636055  0.80905656  0.89767765    -0.29000
H1027       H  0.69180583  0.86128805  0.86582138     0.15200
H1028       H  0.64946286  0.79930358  0.91453252     0.15800
C1029       C  0.86303900  0.86618167  0.90848609    -0.13800
C1030       C  0.91103263  0.86028578  0.91766880    -0.29000
H1031       H  0.84352658  0.90141538  0.90100949     0.15200
H1032       H  0.92967487  0.82581686  0.92696239     0.15800
C1033       C  0.49532991  0.51579674  0.77879391    -0.13800
C1034       C  0.53111334  0.51440843  0.75642596    -0.29000
H1035       H  0.45681892  0.52114781  0.77083631     0.15200
H1036       H  0.55493934  0.01899626  0.77095682     0.15800
C1037       C  0.72387786  0.76770133  0.75036484    -0.13800
C1038       C  0.76411750  0.75234176  0.76920223    -0.29000
H1039       H  0.68736592  0.77702899  0.76155778     0.15200
H1040       H  0.79994155  0.74029848  0.75744912     0.15800
C1041       C  0.87734295  0.61757903  0.62508807    -0.13800
C1042       C  0.89983641  0.59573344  0.65166658    -0.29000
H1043       H  0.88721120  0.60118481  0.60134185     0.15200
H1044       H  0.88979724  0.61012644  0.67586985     0.15800
C1045       C  0.57394537  0.94410448  0.64137749    -0.13800
C1046       C  0.58872588  0.91826168  0.61452239    -0.29000
H1047       H  0.59270713  0.93284149  0.66411782     0.15200
H1048       H  0.57266057  0.92955566  0.59098603     0.15800
C1049       C  0.84412481  0.90120325  0.62825471    -0.13800
C1050       C  0.89004065  0.89775226  0.64017995    -0.29000
H1051       H  0.82661775  0.93438220  0.61659261     0.15200
H1052       H  0.90953815  0.86359219  0.64954229     0.15800
C1053       C  0.62099213  0.64653889  0.61066413    -0.13800
C1054       C  0.57460313  0.65085585  0.62182090    -0.29000
H1055       H  0.63779625  0.61436830  0.59725742     0.15200
H1056       H  0.55658792  0.68413868  0.63356484     0.15800
loop_ 
_geom_bond_atom_site_label_1 
_geom_bond_atom_site_label_2 
_geom_bond_distance 
_geom_bond_site_symmetry_2 
_ccdc_geom_bond_type 
O1           C17   1.278       .  A
O1           Zn7   2.054       .  S
C2           O18   1.272       .  A
C2           O15   1.285       .  A
C2          C257   1.481       .  S
O3           C16   1.272       .  A
O3          Cd10   2.057       .  S
O4           C22   1.283       .  A
O4          Cd13   2.128       .  S
O5           C19   1.272       .  A
O5           Cd9   2.062       .  S
O6           C17   1.271       .  A
O6           Cd9   2.053       .  S
Zn7          O18   1.998       .  S
Zn7          O20   2.068       .  S
Zn7          O12   1.960       .  S
O8           C19   1.280       .  A
O8          Cd13   2.109       .  S
Cd9          O11   2.077       .  S
Cd9          O12   1.995       .  S
Cd10         O14   2.046       .  S
Cd10         O23   2.048       .  S
Cd10         O12   1.996       .  S
O11          C21   1.277       .  A
O12         Cd13   2.024       .  S
Cd13         O15   2.126       .  S
O14          C21   1.269       .  A
C16          O20   1.280       .  A
C16         C177   1.477       .  S
C17         C254   1.477       .  S
C19         C245   1.482       .  S
C21         C261   1.470       .  S
C22          O23   1.270       .  A
C22         C249   1.482       .  S
C24          C27   1.534       .  S
C24         C554   1.544   1_455  S
C24         C292   1.536       .  S
C24         C253   1.521       .  S
C25          C30   1.533       .  S
C25         C293   1.543       .  S
C25         C559   1.539       .  S
C25         C250   1.523       .  S
C26         C552   1.540       .  S
C26          C34   1.381       .  A
C26          C29   1.403       .  A
C27          C38   1.373       .  A
C27         C822   1.393   1_455  A
C28         C288   1.536   1_545  S
C28          C42   1.384       .  A
C28          C31   1.411   1_455  A
C29         C289   1.541       .  S
C29          C32   1.388       .  A
C30          C36   1.377       .  A
C30         C819   1.387       .  A
C31         C553   1.539       .  S
C31          C39   1.376   1_655  A
C32          N33   1.360       .  A
C32          H45   1.082       .  S
N33          C34   1.348       .  A
N33         C258   1.443       .  S
C34          H35   1.081       .  S
C36         N565   1.359       .  A
C36          H46   1.082       .  S
N37         C564   1.360   1_455  A
N37         C302   1.348   1_545  A
N37         C242   1.426       .  S
C38         N301   1.355       .  A
C38          H44   1.082       .  S
C39          N40   1.345       .  A
C39          H41   1.083   1_455  S
N40          C42   1.356       .  A
N40         C262   1.434       .  S
C42          H43   1.083       .  S
O47          C63   1.276   1_546  A
O47         Zn53   2.008       .  S
C48          O64   1.277       .  A
C48          O61   1.271       .  A
C48         C226   1.477       .  S
O49          C62   1.269       .  A
O49         Cd56   2.037   1_545  S
O50          C68   1.276   1_455  A
O50         Cd59   2.059   1_545  S
O51          C65   1.278       .  A
O51         Cd55   2.095       .  S
O52         C327   1.278       .  A
O52         Cd55   2.097       .  S
Zn53         O64   2.049       .  S
Zn53        O594   2.044   1_455  S
Zn53         O58   1.944   1_545  S
O54          C65   1.275       .  A
O54        Cd323   2.079       .  S
Cd55        O585   2.086   1_455  S
Cd55        O322   2.016       .  S
Cd56         O69   2.045   1_565  S
Cd56        O324   2.045       .  S
Cd56        O586   1.990       .  S
O57          C67   1.281       .  A
O57        Cd583   2.115       .  S
O58         Cd59   1.990       .  S
O58        Cd319   2.005       .  S
O58        Cd584   2.003   1_455  S
Cd59         O61   2.055   1_565  S
Cd59        O318   2.060       .  S
O60          C67   1.270       .  A
O60        Cd320   2.032       .  S
C62          O66   1.275       .  A
C62         C229   1.470       .  S
C63         O316   1.279   1_554  A
C63         C622   1.474       .  S
C65         C233   1.476       .  S
O66        Zn581   2.042       .  S
C67         C238   1.473       .  S
C68         O597   1.271       .  A
C68         C241   1.468       .  S
O69         C596   1.269       .  A
C70          C72   1.526       .  S
C70          C74   1.535       .  S
C70          C73   1.536       .  S
C70         C230   1.509       .  S
C71          C75   1.541       .  S
C71          C77   1.548       .  S
C71          C76   1.544       .  S
C71         C234   1.521       .  S
C72          C80   1.377       .  A
C72          C75   1.386       .  A
C73          C84   1.378       .  A
C73          C76   1.395       .  A
C74          C88   1.380       .  A
C74          C77   1.407       .  A
C75          C78   1.379       .  A
C76          C82   1.383       .  A
C77          C85   1.386       .  A
C78          N79   1.364       .  A
C78          H91   1.081       .  S
N79          C80   1.354       .  A
N79         C237   1.442       .  S
C80          H81   1.083       .  S
C82          N83   1.363       .  A
C82          H92   1.082       .  S
N83          C84   1.356       .  A
N83         C246   1.444       .  S
C84          H90   1.082       .  S
C85          N86   1.353       .  A
C85          H87   1.081       .  S
N86          C88   1.356       .  A
N86         C225   1.443       .  S
C88          H89   1.082       .  S
O93         C109   1.280       .  A
O93         Zn99   2.069       .  S
C94         O107   1.276   1_565  A
C94         O374   1.278       .  A
C94         C591   1.474   1_554  S
O95         C108   1.274       .  A
O95        Cd366   2.073       .  S
O96         C114   1.276       .  A
O96        Cd633   2.084       .  S
O97         C111   1.270       .  A
O97        Cd101   2.047       .  S
O98         C109   1.269       .  A
O98        Cd365   2.036       .  S
Zn99        O110   2.066       .  S
Zn99        O640   2.059       .  S
Zn99        O368   1.974       .  S
O100        C111   1.276       .  A
O100       Cd105   2.095       .  S
Cd101       O103   2.044       .  S
Cd101       O362   2.056   1_545  S
Cd101       O104   1.995   1_545  S
Cd102       O106   2.080       .  S
Cd102       O115   2.063       .  S
Cd102       O359   2.067   1_545  S
Cd102       O632   2.001       .  S
O103        C113   1.270       .  A
O104       Zn363   1.966       .  S
O104       Cd105   1.999   1_565  S
O104       Cd630   2.009       .  S
Cd105       O107   2.056       .  S
Cd105       O624   2.083       .  S
O106        C641   1.276       .  A
C108        O112   1.278       .  A
C108        C213   1.474       .  S
C109        C222   1.475       .  S
O110        C358   1.279       .  A
C111        C218   1.476       .  S
O112       Zn627   2.048       .  S
C113        O634   1.279       .  A
C113        C206   1.473       .  S
C114        O115   1.273       .  A
C114        C209   1.475       .  S
C116        C118   1.542       .  S
C116        C120   1.549       .  S
C116        C119   1.541       .  S
C116        C214   1.520       .  S
C117        C121   1.527       .  S
C117        C123   1.535       .  S
C117        C122   1.538       .  S
C117        C217   1.512       .  S
C118        C126   1.380       .  A
C118        C121   1.387       .  A
C119        C130   1.383       .  A
C119        C122   1.392       .  A
C120        C134   1.386       .  A
C120        C123   1.411       .  A
C121        C124   1.377       .  A
C122        C128   1.377       .  A
C123        C131   1.379       .  A
C124        N125   1.354       .  A
C124        H137   1.082       .  S
N125        C126   1.364       .  A
N125        C221   1.443       .  S
C126        H127   1.081       .  S
C128        N129   1.359       .  A
C128        H138   1.082       .  S
N129        C130   1.363       .  A
N129        C201   1.444       .  S
C130        H136   1.082       .  S
C131        N132   1.354       .  A
C131        H133   1.082       .  S
N132        C134   1.352       .  A
N132        C210   1.440       .  S
C134        H135   1.080       .  S
C139        C141   1.533       .  S
C139        C142   1.542       .  S
C139        C671   1.546       .  S
C139        C194   1.516       .  S
C140        C672   1.528   1_455  S
C140        C410   1.550       .  S
C140        C409   1.523       .  S
C140        C190   1.508       .  S
C141        C413   1.380       .  A
C141        C408   1.384   1_545  A
C142        C153   1.382       .  A
C142        C673   1.389       .  A
C143        C667   1.547       .  S
C143        C157   1.387   1_655  A
C143        C146   1.424   1_655  A
C144        C668   1.526       .  S
C144        C147   1.376       .  A
C144        C405   1.382       .  A
C145        C404   1.522   1_545  S
C145        C670   1.388   1_455  A
C145        C415   1.368       .  A
C146        C404   1.551   1_545  S
C146        C154   1.389       .  A
C147        N148   1.358       .  A
C147        H160   1.082       .  S
N148        C149   1.357       .  A
N148        C197   1.438       .  S
C149        C405   1.380       .  A
C149        H414   1.082       .  S
H150        C413   1.082       .  S
C151        C409   1.369       .  A
C151        N944   1.351       .  A
C151        H161   1.083       .  S
N152        C153   1.365       .  A
N152        C943   1.351       .  A
N152        C205   1.435       .  S
C153        H159   1.082       .  S
C154        N155   1.351       .  A
C154        H156   1.082       .  S
N155        C157   1.354       .  A
N155        C186   1.446       .  S
C157        H158   1.082   1_455  S
O162        C178   1.279       .  A
O162       Zn168   2.052       .  S
C163        O179   1.277       .  A
C163        O176   1.274       .  A
C163        C193   1.477       .  S
O164        C177   1.273       .  A
O164       Cd171   2.079       .  S
O165        C183   1.276       .  A
O165       Cd174   2.077       .  S
O166        C180   1.277       .  A
O166       Cd170   2.096       .  S
O167        C178   1.275       .  A
O167       Cd170   2.076       .  S
Zn168       O179   2.038       .  S
Zn168       O181   2.039       .  S
Zn168       O173   1.950       .  S
O169        C180   1.276       .  A
O169       Cd174   2.083       .  S
Cd170       O172   2.074       .  S
Cd170       O173   2.004       .  S
Cd171       O175   2.053       .  S
Cd171       O184   2.072       .  S
Cd171       O173   2.015       .  S
O172        C182   1.277       .  A
O173       Cd174   2.009       .  S
Cd174       O176   2.071       .  S
O175        C182   1.270       .  A
C177        O181   1.277       .  A
C178        C185   1.484       .  S
C180        C202   1.487       .  S
C182        C189   1.472       .  S
C183        O184   1.276       .  A
C183        C198   1.475       .  S
C185        C186   1.347       .  D
C185        H187   1.085       .  S
C186        H188   1.087       .  S
C189        C190   1.338       .  D
C189        H191   1.083       .  S
C190        H192   1.087       .  S
C193        C194   1.348       .  D
C193        H195   1.087       .  S
C194        H196   1.086       .  S
C197        C198   1.345       .  D
C197        H199   1.087       .  S
C198        H200   1.086       .  S
C201        C202   1.348       .  D
C201        H203   1.087       .  S
C202        H204   1.086       .  S
C205        C206   1.337       .  D
C205        H999   1.087       .  S
C206        H208   1.087       .  S
H207        C997   1.087       .  S
C209        C210   1.344       .  D
C209        H211   1.086       .  S
C210        H212   1.087       .  S
C213        C214   1.345       .  D
C213        H215   1.084       .  S
C214        H216   1.086       .  S
C217        C218   1.349       .  D
C217        H219   1.086       .  S
C218        H220   1.086       .  S
C221        C222   1.341       .  D
C221        H223   1.087       .  S
C222        H224   1.085       .  S
C225        C226   1.344       .  D
C225        H227   1.087       .  S
C226        H228   1.086       .  S
C229        C230   1.347       .  D
C229        H231   1.086       .  S
C230        H232   1.086       .  S
C233        C234   1.344       .  D
C233        H235   1.084       .  S
C234        H236   1.086       .  S
C237        C238   1.340       .  D
C237        H239   1.087       .  S
C238        H240   1.085       .  S
C241        C242   1.336   1_655  D
C241        H243   1.087       .  S
C242        H508   1.087       .  S
H244        C506   1.087       .  S
C245        C246   1.343       .  D
C245        H247   1.086       .  S
C246        H248   1.087       .  S
C249        C250   1.345       .  D
C249        H251   1.087       .  S
C250        H252   1.086       .  S
C253        C254   1.344       .  D
C253        H255   1.086       .  S
C254        H256   1.087       .  S
C257        C258   1.338       .  D
C257        H259   1.087       .  S
C258        H260   1.087       .  S
C261        C262   1.336       .  D
C261        H263   1.086       .  S
C262        H264   1.087       .  S
O265        C281   1.268       .  A
O265       Zn271   2.001       .  S
C266        O282   1.270       .  A
C266        O279   1.284       .  A
C266        C521   1.475       .  S
O267        C280   1.272       .  A
O267       Cd274   2.070       .  S
O268        C286   1.282       .  A
O268       Cd277   2.127       .  S
O269        C283   1.277       .  A
O269       Cd273   2.097       .  S
O270        C281   1.279       .  A
O270       Cd273   2.096       .  S
Zn271       O282   1.975       .  S
Zn271       O284   2.026       .  S
Zn271       O276   1.949       .  S
O272        C283   1.280       .  A
O272       Cd277   2.103       .  S
Cd273       O275   2.102       .  S
Cd273       O276   2.012       .  S
Cd274       O278   2.026       .  S
Cd274       O287   2.047       .  S
Cd274       O276   1.992       .  S
O275        C285   1.281       .  A
O276       Cd277   2.024       .  S
Cd277       O279   2.123       .  S
O278        C285   1.268       .  A
C280        O284   1.273       .  A
C280        C441   1.473       .  S
C281        C518   1.474       .  S
C283        C509   1.493       .  S
C285        C525   1.469       .  S
C286        O287   1.271       .  A
C286        C513   1.480       .  S
C288        C818   1.529   1_455  S
C288        C291   1.524   1_565  S
C288        C517   1.514       .  S
C289        C823   1.535       .  S
C289        C294   1.538       .  S
C289        C514   1.524       .  S
C290        C816   1.531       .  S
C290        C298   1.376       .  A
C290        C293   1.406   1_565  A
C291        C302   1.367   1_545  A
C291        C558   1.388   1_455  A
C292        C306   1.387       .  A
C292        C295   1.402   1_455  A
C293        C296   1.387   1_545  A
C294        C555   1.392       .  A
C294        C300   1.377       .  A
C295        C817   1.532       .  S
C295        C303   1.378       .  A
C296        N297   1.361       .  A
C296        H309   1.082       .  S
N297        C298   1.346       .  A
N297        C522   1.439       .  S
C298        H299   1.083       .  S
C300        N829   1.363       .  A
C300        H310   1.082       .  S
N301        C828   1.363   1_455  A
N301        C506   1.436       .  S
C302        H308   1.082       .  S
C303        N304   1.343   1_655  A
C303        H305   1.083       .  S
N304        C306   1.357       .  A
N304        C526   1.436       .  S
C306        H307   1.082       .  S
O311        C327   1.275       .  A
O311       Zn317   2.007       .  S
C312        O328   1.276       .  A
C312        O325   1.274       .  A
C312        C490   1.479       .  S
O313        C326   1.268       .  A
O313       Cd320   2.042       .  S
O314        C332   1.278   1_455  A
O314       Cd323   2.083       .  S
O315        C329   1.281       .  A
O315       Cd319   2.098       .  S
O316       Cd319   2.099       .  S
Zn317       O328   2.026       .  S
Zn317       O858   2.043   1_455  S
Zn317       O322   1.947       .  S
O318        C329   1.271       .  A
Cd319       O849   2.085   1_455  S
Cd320       O333   2.036       .  S
Cd320       O850   1.982       .  S
O321        C331   1.283       .  A
O321       Cd847   2.128       .  S
O322       Cd848   1.998   1_455  S
O322       Cd323   2.007       .  S
Cd323       O325   2.075       .  S
O324        C331   1.271       .  A
C326        O330   1.271       .  A
C326        C493   1.465       .  S
C327        C886   1.473   1_556  S
C329        C497   1.481       .  S
O330       Zn845   2.017       .  S
C331        C502   1.482       .  S
C332        O861   1.271       .  A
C332        C505   1.472       .  S
O333        C860   1.268       .  A
C334        C336   1.529       .  S
C334        C338   1.530       .  S
C334        C337   1.537       .  S
C334        C494   1.505       .  S
C335        C339   1.543       .  S
C335        C341   1.545       .  S
C335        C340   1.552       .  S
C335        C498   1.513       .  S
C336        C344   1.375       .  A
C336        C339   1.385       .  A
C337        C348   1.375       .  A
C337        C340   1.396       .  A
C338        C352   1.384       .  A
C338        C341   1.401       .  A
C339        C342   1.386       .  A
C340        C346   1.391       .  A
C341        C349   1.384       .  A
C342        N343   1.367       .  A
C342        H355   1.082       .  S
N343        C344   1.354       .  A
N343        C501   1.446       .  S
C344        H345   1.083       .  S
C346        N347   1.366       .  A
C346        H356   1.082       .  S
N347        C348   1.358       .  A
N347        C510   1.449       .  S
C348        H354   1.082       .  S
C349        N350   1.351       .  A
C349        H351   1.082       .  S
N350        C352   1.355       .  A
N350        C489   1.440       .  S
C352        H353   1.082       .  S
O357        C373   1.278       .  A
O357       Zn363   2.046       .  S
C358        O371   1.278       .  A
C358        C855   1.480   1_554  S
O359        C372   1.273       .  A
O360        C378   1.276       .  A
O360       Cd897   2.079       .  S
O361        C375   1.268       .  A
O361       Cd365   2.035       .  S
O362        C373   1.271       .  A
Zn363       O374   2.058       .  S
Zn363       O904   2.037       .  S
O364        C375   1.277       .  A
O364       Cd369   2.102       .  S
Cd365       O367   2.036       .  S
Cd365       O368   1.986       .  S
Cd366       O370   2.082       .  S
Cd366       O379   2.073       .  S
Cd366       O896   2.006       .  S
O367        C377   1.268       .  A
O368       Cd894   2.003       .  S
O368       Cd369   2.003       .  S
Cd369       O888   2.100       .  S
Cd369       O371   2.067       .  S
O370        C905   1.278   1_455  A
C372        O376   1.281       .  A
C372        C477   1.484       .  S
C373        C486   1.478       .  S
C375        C482   1.475       .  S
O376       Zn891   2.057       .  S
C377        O898   1.276       .  A
C377        C470   1.467       .  S
C378        O379   1.274       .  A
C378        C473   1.479       .  S
C380        C382   1.538       .  S
C380        C384   1.543       .  S
C380        C383   1.544       .  S
C380        C478   1.517       .  S
C381        C385   1.529       .  S
C381        C387   1.535       .  S
C381        C386   1.538       .  S
C381        C481   1.512       .  S
C382        C390   1.383       .  A
C382        C385   1.389       .  A
C383        C394   1.384       .  A
C383        C386   1.394       .  A
C384        C398   1.381       .  A
C384        C387   1.407       .  A
C385        C388   1.374       .  A
C386        C392   1.376       .  A
C387        C395   1.386       .  A
C388        N389   1.353       .  A
C388        H401   1.083       .  S
N389        C390   1.364       .  A
N389        C485   1.441       .  S
C390        H391   1.082       .  S
C392        N393   1.358       .  A
C392        H402   1.082       .  S
N393        C394   1.363       .  A
N393        C465   1.444       .  S
C394        H400   1.082       .  S
C395        N396   1.356       .  A
C395        H397   1.082       .  S
N396        C398   1.349       .  A
N396        C474   1.440       .  S
C398        H399   1.082       .  S
C403        C405   1.533       .  S
C403        C935   1.546       .  S
C403        C406   1.537       .  S
C403        C458   1.513       .  S
C404        C936   1.528   1_455  S
C404        C454   1.511       .  S
C406        C417   1.378       .  A
C406        C937   1.388       .  A
C407        C931   1.546       .  S
C407        C421   1.387   1_655  A
C407        C410   1.419   1_655  A
C408        C932   1.528       .  S
C408        C411   1.377       .  A
C409        C934   1.388   1_455  A
C410        C418   1.389       .  A
C411        N412   1.359       .  A
C411        H424   1.082       .  S
N412        C413   1.357   1_565  A
N412        C461   1.439       .  S
C415        N680   1.351       .  A
C415        H425   1.083   1_545  S
N416        C679   1.352       .  A
N416        C417   1.363       .  A
N416        C469   1.433       .  S
C417        H423   1.082       .  S
C418        N419   1.351       .  A
C418        H420   1.081       .  S
N419        C421   1.355       .  A
N419        C450   1.447       .  S
C421        H422   1.081   1_455  S
O426        C442   1.279       .  A
O426       Zn432   2.054       .  S
C427        O443   1.275       .  A
C427        O440   1.274       .  A
C427        C457   1.473       .  S
O428        C441   1.274       .  A
O428       Cd435   2.071       .  S
O429        C447   1.276       .  A
O429       Cd438   2.082       .  S
O430        C444   1.277       .  A
O430       Cd434   2.093       .  S
O431        C442   1.275       .  A
O431       Cd434   2.078       .  S
Zn432       O443   2.025       .  S
Zn432       O445   2.030       .  S
Zn432       O437   1.953       .  S
O433        C444   1.277       .  A
O433       Cd438   2.082       .  S
Cd434       O436   2.078       .  S
Cd434       O437   2.002       .  S
Cd435       O439   2.060       .  S
Cd435       O448   2.070       .  S
Cd435       O437   2.008       .  S
O436        C446   1.278       .  A
O437       Cd438   2.008       .  S
Cd438       O440   2.070       .  S
O439        C446   1.271       .  A
C441        O445   1.275       .  A
C442        C449   1.485       .  S
C444        C466   1.486       .  S
C446        C453   1.476       .  S
C447        O448   1.275       .  A
C447        C462   1.477       .  S
C449        C450   1.347       .  D
C449        H451   1.084       .  S
C450        H452   1.087       .  S
C453        C454   1.339       .  D
C453        H455   1.083       .  S
C454        H456   1.087       .  S
C457        C458   1.345       .  D
C457        H459   1.087       .  S
C458        H460   1.086       .  S
C461        C462   1.346       .  D
C461        H463   1.087       .  S
C462        H464   1.086       .  S
C465        C466   1.348       .  D
C465        H467   1.087       .  S
C466        H468   1.085       .  S
C469        C470   1.336       .  D
C469        H735   1.087       .  S
C470        H472   1.086       .  S
H471        C733   1.087       .  S
C473        C474   1.344       .  D
C473        H475   1.086       .  S
C474        H476   1.087       .  S
C477        C478   1.340       .  D
C477        H479   1.086       .  S
C478        H480   1.086       .  S
C481        C482   1.350       .  D
C481        H483   1.086       .  S
C482        H484   1.086       .  S
C485        C486   1.342       .  D
C485        H487   1.087       .  S
C486        H488   1.085       .  S
C489        C490   1.345       .  D
C489        H491   1.087       .  S
C490        H492   1.085       .  S
C493        C494   1.346       .  D
C493        H495   1.087       .  S
C494        H496   1.086       .  S
C497        C498   1.337       .  D
C497        H499   1.086       .  S
C498        H500   1.086       .  S
C501        C502   1.341       .  D
C501        H503   1.087       .  S
C502        H504   1.085       .  S
C505        C506   1.340   1_655  D
C505        H507   1.086       .  S
C509        C510   1.349       .  D
C509        H511   1.086       .  S
C510        H512   1.087       .  S
C513        C514   1.348       .  D
C513        H515   1.088       .  S
C514        H516   1.086       .  S
C517        C518   1.339       .  D
C517        H519   1.086       .  S
C518        H520   1.086       .  S
C521        C522   1.335       .  D
C521        H523   1.087       .  S
C522        H524   1.087       .  S
C525        C526   1.334       .  D
C525        H527   1.086       .  S
C526        H528   1.087       .  S
O529        C545   1.276       .  A
O529       Zn535   2.045       .  S
C530        O546   1.272       .  A
C530        O543   1.286       .  A
C530        C785   1.483       .  S
O531        C544   1.272       .  A
O531       Cd538   2.062       .  S
O532        C550   1.282       .  A
O532       Cd541   2.124       .  S
O533        C547   1.275       .  A
O533       Cd537   2.077       .  S
O534        C545   1.274       .  A
O534       Cd537   2.066       .  S
Zn535       O546   1.995       .  S
Zn535       O548   2.071       .  S
Zn535       O540   1.962       .  S
O536        C547   1.281       .  A
O536       Cd541   2.117       .  S
Cd537       O539   2.086       .  S
Cd537       O540   2.001       .  S
Cd538       O542   2.041       .  S
Cd538       O551   2.049       .  S
Cd538       O540   1.998       .  S
O539        C549   1.279       .  A
O540       Cd541   2.026       .  S
Cd541       O543   2.135       .  S
O542        C549   1.268       .  A
C544        O548   1.280       .  A
C544        C705   1.480       .  S
C545        C782   1.478       .  S
C547        C773   1.490       .  S
C549        C789   1.471       .  S
C550        O551   1.270       .  A
C550        C777   1.480       .  S
C552        C820   1.538       .  S
C552        C555   1.533       .  S
C552        C781   1.522       .  S
C553        C821   1.544       .  S
C553        C558   1.534       .  S
C553        C778   1.522       .  S
C554        C562   1.384       .  A
C554        C557   1.408       .  A
C555        C566   1.374       .  A
C556        C816   1.538   1_545  S
C556        C570   1.387       .  A
C556        C559   1.413       .  A
C557        C817   1.542       .  S
C557        C560   1.390       .  A
C558        C564   1.380       .  A
C559        C567   1.375       .  A
C560        N561   1.359       .  A
C560        H573   1.082       .  S
N561        C562   1.349       .  A
N561        C786   1.446       .  S
C562        H563   1.081       .  S
C564        H574   1.082       .  S
N565        C830   1.348   1_545  A
N565        C770   1.424       .  S
C566        N829   1.355       .  A
C566        H572   1.082       .  S
C567        N568   1.343       .  A
C567        H569   1.083       .  S
N568        C570   1.357       .  A
N568        C790   1.434       .  S
C570        H571   1.082       .  S
O575        C591   1.274   1_545  A
O575       Zn581   1.989       .  S
C576        O592   1.277       .  A
C576        O589   1.269       .  A
C576        C754   1.477       .  S
O577        C590   1.273       .  A
O577       Cd584   2.063   1_545  S
O578        C596   1.274       .  A
O578       Cd587   2.054   1_545  S
O579        C593   1.284       .  A
O579       Cd583   2.111       .  S
O580        C855   1.281       .  A
O580       Cd583   2.127       .  S
Zn581       O592   2.045       .  S
Zn581       O586   1.944   1_545  S
O582        C593   1.274       .  A
O582       Cd851   2.068       .  S
Cd583       O850   2.021       .  S
Cd584       O852   2.081       .  S
Cd584       O597   2.053   1_565  S
O585        C595   1.277       .  A
O586       Cd847   2.023       .  S
O586       Cd587   1.986       .  S
Cd587       O846   2.041       .  S
Cd587       O589   2.051   1_565  S
O588        C595   1.275       .  A
O588       Cd848   2.076       .  S
C590        O594   1.277       .  A
C590        C757   1.476       .  S
C591        O844   1.281       .  A
C593        C761   1.486       .  S
C595        C766   1.481       .  S
C596        C769   1.465       .  S
C598        C600   1.536       .  S
C598        C602   1.535       .  S
C598        C601   1.540       .  S
C598        C758   1.516       .  S
C599        C603   1.537       .  S
C599        C605   1.540       .  S
C599        C604   1.550       .  S
C599        C762   1.519       .  S
C600        C608   1.376       .  A
C600        C603   1.391       .  A
C601        C612   1.378       .  A
C601        C604   1.397       .  A
C602        C616   1.386       .  A
C602        C605   1.400       .  A
C603        C606   1.382       .  A
C604        C610   1.388       .  A
C605        C613   1.379       .  A
C606        N607   1.363       .  A
C606        H619   1.081       .  S
N607        C608   1.357       .  A
N607        C765   1.442       .  S
C608        H609   1.083       .  S
C610        N611   1.366       .  A
C610        H620   1.082       .  S
N611        C612   1.358       .  A
N611        C774   1.449       .  S
C612        H618   1.082       .  S
C613        N614   1.349       .  A
C613        H615   1.082       .  S
N614        C616   1.358       .  A
N614        C753   1.438       .  S
C616        H617   1.082       .  S
O621        C637   1.279       .  A
O621       Zn627   2.051   1_655  S
C622        O902   1.279       .  A
C622        O635   1.275   1_565  A
O623        C636   1.272       .  A
O623       Cd894   2.058       .  S
O624        C642   1.277       .  A
O625        C639   1.269       .  A
O625       Cd629   2.036       .  S
O626        C637   1.271       .  A
O626       Cd893   2.057       .  S
Zn627       O638   2.059       .  S
Zn627       O896   1.962       .  S
O628        C639   1.275       .  A
O628       Cd633   2.090   1_655  S
Cd629       O890   2.039   1_545  S
Cd629       O631   2.038       .  S
Cd629       O632   1.987   1_655  S
Cd630       O887   2.076       .  S
Cd630       O634   2.093   1_565  S
Cd630       O643   2.077   1_565  S
O631        C641   1.268   1_655  A
O632       Zn891   1.967   1_545  S
O632       Cd633   2.003       .  S
Cd633       O635   2.054       .  S
C636        O640   1.282       .  A
C636        C741   1.481       .  S
C637        C750   1.479       .  S
O638        C886   1.279       .  A
C639        C746   1.471       .  S
C641        C734   1.468   1_455  S
C642        O643   1.274       .  A
C642        C737   1.481       .  S
C644        C646   1.538       .  S
C644        C648   1.544       .  S
C644        C647   1.548       .  S
C644        C742   1.514       .  S
C645        C649   1.529       .  S
C645        C651   1.534       .  S
C645        C650   1.536       .  S
C645        C745   1.508       .  S
C646        C654   1.384       .  A
C646        C649   1.386       .  A
C647        C658   1.387       .  A
C647        C650   1.395       .  A
C648        C662   1.382       .  A
C648        C651   1.406       .  A
C649        C652   1.374       .  A
C650        C656   1.375       .  A
C651        C659   1.386       .  A
C652        N653   1.354       .  A
C652        H665   1.083       .  S
N653        C654   1.364       .  A
N653        C749   1.442       .  S
C654        H655   1.082       .  S
C656        N657   1.357       .  A
C656        H666   1.082       .  S
N657        C658   1.365       .  A
N657        C729   1.446       .  S
C658        H664   1.082       .  S
C659        N660   1.356       .  A
C659        H661   1.082       .  S
N660        C662   1.349       .  A
N660        C738   1.441       .  S
C662        H663   1.082       .  S
C667        C669   1.533       .  S
C667        C670   1.538       .  S
C667        C722   1.515       .  S
C668        C938   1.549       .  S
C668        C937   1.523       .  S
C668        C718   1.508       .  S
C669        C941   1.381       .  A
C669        C936   1.381   1_545  A
C670        C681   1.379       .  A
C671        C685   1.385       .  A
C671        C674   1.418       .  A
C672        C933   1.382       .  A
C672        C675   1.379       .  A
C673        C932   1.524   1_545  S
C673        C943   1.369       .  A
C674        C932   1.548   1_545  S
C674        C682   1.388       .  A
C675        N676   1.359       .  A
C675        H688   1.082       .  S
N676        C677   1.357       .  A
N676        C725   1.440       .  S
C677        C933   1.380       .  A
C677        H942   1.082       .  S
H678        C941   1.082       .  S
C679        C937   1.369       .  A
C679        H689   1.083       .  S
N680        C681   1.362   1_455  A
N680        C733   1.431       .  S
C681        H687   1.082       .  S
C682        N683   1.351       .  A
C682        H684   1.081       .  S
N683        C685   1.356       .  A
N683        C714   1.446       .  S
C685        H686   1.081       .  S
O690        C706   1.280       .  A
O690       Zn696   2.055       .  S
C691        O707   1.276       .  A
C691        O704   1.275       .  A
C691        C721   1.477       .  S
O692        C705   1.275       .  A
O692       Cd699   2.087       .  S
O693        C711   1.276       .  A
O693       Cd702   2.080       .  S
O694        C708   1.276       .  A
O694       Cd698   2.090       .  S
O695        C706   1.274       .  A
O695       Cd698   2.067       .  S
Zn696       O707   2.036       .  S
Zn696       O709   2.041       .  S
Zn696       O701   1.951       .  S
O697        C708   1.278       .  A
O697       Cd702   2.092       .  S
Cd698       O700   2.066       .  S
Cd698       O701   2.002       .  S
Cd699       O703   2.059       .  S
Cd699       O712   2.078       .  S
Cd699       O701   2.015       .  S
O700        C710   1.276       .  A
O701       Cd702   2.008       .  S
Cd702       O704   2.071       .  S
O703        C710   1.271       .  A
C705        O709   1.277       .  A
C706        C713   1.482       .  S
C708        C730   1.489       .  S
C710        C717   1.472       .  S
C711        O712   1.277       .  A
C711        C726   1.477       .  S
C713        C714   1.345       .  D
C713        H715   1.084       .  S
C714        H716   1.087       .  S
C717        C718   1.339       .  D
C717        H719   1.083       .  S
C718        H720   1.087       .  S
C721        C722   1.347       .  D
C721        H723   1.087       .  S
C722        H724   1.086       .  S
C725        C726   1.345       .  D
C725        H727   1.087       .  S
C726        H728   1.086       .  S
C729        C730   1.347       .  D
C729        H731   1.087       .  S
C730        H732   1.085       .  S
C733        C734   1.336   1_455  D
C734        H736   1.087       .  S
C737        C738   1.344       .  D
C737        H739   1.086       .  S
C738        H740   1.087       .  S
C741        C742   1.338       .  D
C741        H743   1.087       .  S
C742        H744   1.086       .  S
C745        C746   1.348       .  D
C745        H747   1.086       .  S
C746        H748   1.086       .  S
C749        C750   1.342       .  D
C749        H751   1.087       .  S
C750        H752   1.085       .  S
C753        C754   1.340       .  D
C753        H755   1.087       .  S
C754        H756   1.086       .  S
C757        C758   1.349       .  D
C757        H759   1.086       .  S
C758        H760   1.086       .  S
C761        C762   1.339       .  D
C761        H763   1.086       .  S
C762        H764   1.085       .  S
C765        C766   1.346       .  D
C765        H767   1.087       .  S
C766        H768   1.085       .  S
C769        C770   1.335       .  D
C769        H771   1.087       .  S
C770       H1036   1.087       .  S
H772       C1034   1.087       .  S
C773        C774   1.346       .  D
C773        H775   1.086       .  S
C774        H776   1.087       .  S
C777        C778   1.346       .  D
C777        H779   1.087       .  S
C778        H780   1.086       .  S
C781        C782   1.347       .  D
C781        H783   1.086       .  S
C782        H784   1.087       .  S
C785        C786   1.340       .  D
C785        H787   1.086       .  S
C786        H788   1.087       .  S
C789        C790   1.334       .  D
C789        H791   1.086       .  S
C790        H792   1.088       .  S
O793        C809   1.268       .  A
O793       Zn799   1.996       .  S
C794        O810   1.270       .  A
C794        O807   1.284       .  A
C794       C1049   1.475       .  S
O795        C808   1.272       .  A
O795       Cd802   2.069       .  S
O796        C814   1.281       .  A
O796       Cd805   2.125       .  S
O797        C811   1.278       .  A
O797       Cd801   2.101       .  S
O798        C809   1.279       .  A
O798       Cd801   2.098       .  S
Zn799       O810   1.978       .  S
Zn799       O812   2.020       .  S
Zn799       O804   1.946       .  S
O800        C811   1.278       .  A
O800       Cd805   2.093       .  S
Cd801       O803   2.102       .  S
Cd801       O804   2.011       .  S
Cd802       O806   2.021       .  S
Cd802       O815   2.043       .  S
Cd802       O804   1.990       .  S
O803        C813   1.281       .  A
O804       Cd805   2.020       .  S
Cd805       O807   2.120       .  S
O806        C813   1.267       .  A
C808        O812   1.272       .  A
C808        C969   1.471       .  S
C809       C1046   1.473       .  S
C811       C1037   1.492       .  S
C813       C1053   1.467       .  S
C814        O815   1.270       .  A
C814       C1041   1.477       .  S
C816        C819   1.521   1_565  S
C816       C1045   1.514       .  S
C817        C822   1.536       .  S
C817       C1042   1.522       .  S
C818        C826   1.375       .  A
C818        C821   1.406   1_565  A
C819        C830   1.367   1_545  A
C820        C834   1.385       .  A
C820        C823   1.408       .  A
C821        C824   1.388   1_545  A
C822        C828   1.376       .  A
C823        C831   1.377       .  A
C824        N825   1.361       .  A
C824        H837   1.082   1_565  S
N825        C826   1.346       .  A
N825       C1050   1.439       .  S
C826        H827   1.083       .  S
C828        H838   1.082       .  S
N829       C1034   1.438       .  S
C830        H836   1.082       .  S
C831        N832   1.343       .  A
C831        H833   1.083       .  S
N832        C834   1.358       .  A
N832       C1054   1.437       .  S
C834        H835   1.082       .  S
O839        C855   1.271       .  A
O839       Zn845   1.988       .  S
C840        O856   1.270       .  A
C840        O853   1.276       .  A
C840       C1018   1.465       .  S
O841        C854   1.272       .  A
O841       Cd848   2.061       .  S
O842        C860   1.278       .  A
O842       Cd851   2.099       .  S
O843        C857   1.286       .  A
O843       Cd847   2.134       .  S
O844       Cd847   2.116       .  S
Zn845       O856   1.987       .  S
Zn845       O850   1.933       .  S
O846        C857   1.270       .  A
Cd848       O861   2.048       .  S
O849        C859   1.276       .  A
O850       Cd851   2.010       .  S
Cd851       O853   2.075       .  S
O852        C859   1.277       .  A
C854        O858   1.274       .  A
C854       C1021   1.477       .  S
C857       C1025   1.483       .  S
C859       C1030   1.481       .  S
C860       C1033   1.472       .  S
C862        C864   1.535       .  S
C862        C866   1.530       .  S
C862        C865   1.539       .  S
C862       C1022   1.514       .  S
C863        C867   1.543       .  S
C863        C869   1.534       .  S
C863        C868   1.547       .  S
C863       C1026   1.522       .  S
C864        C872   1.381       .  A
C864        C867   1.404       .  A
C865        C876   1.376       .  A
C865        C868   1.393       .  A
C866        C880   1.382       .  A
C866        C869   1.401       .  A
C867        C870   1.383       .  A
C868        C874   1.387       .  A
C869        C877   1.378       .  A
C870        N871   1.355       .  A
C870        H883   1.082       .  S
N871        C872   1.357       .  A
N871       C1029   1.443       .  S
C872        H873   1.082       .  S
C874        N875   1.365       .  A
C874        H884   1.082       .  S
N875        C876   1.359       .  A
N875       C1038   1.448       .  S
C876        H882   1.082       .  S
C877        N878   1.352       .  A
C877        H879   1.082       .  S
N878        C880   1.349       .  A
N878       C1017   1.435       .  S
C880        H881   1.083       .  S
O885        C901   1.280       .  A
O885       Zn891   2.071   1_655  S
C886        O899   1.274       .  A
O887        C900   1.275       .  A
O888        C906   1.279       .  A
O889        C903   1.271       .  A
O889       Cd893   2.048       .  S
O890        C901   1.270       .  A
Zn891       O902   2.059       .  S
O892        C903   1.275       .  A
O892       Cd897   2.087   1_655  S
Cd893       O895   2.044       .  S
Cd893       O896   1.996   1_655  S
Cd894       O898   2.082       .  S
Cd894       O907   2.065       .  S
O895        C905   1.270       .  A
O896       Cd897   2.000       .  S
Cd897       O899   2.051       .  S
C900        O904   1.276       .  A
C900       C1005   1.472       .  S
C901       C1014   1.477       .  S
C903       C1010   1.474       .  S
C905        C998   1.470       .  S
C906        O907   1.274       .  A
C906       C1001   1.479       .  S
C908        C910   1.541       .  S
C908        C912   1.551       .  S
C908        C911   1.538       .  S
C908       C1006   1.518       .  S
C909        C913   1.528       .  S
C909        C915   1.535       .  S
C909        C914   1.536       .  S
C909       C1009   1.509       .  S
C910        C918   1.381       .  A
C910        C913   1.387       .  A
C911        C922   1.381       .  A
C911        C914   1.390       .  A
C912        C926   1.388       .  A
C912        C915   1.410       .  A
C913        C916   1.378       .  A
C914        C920   1.376       .  A
C915        C923   1.381       .  A
C916        N917   1.355       .  A
C916        H929   1.083       .  S
N917        C918   1.363       .  A
N917       C1013   1.443       .  S
C918        H919   1.081       .  S
C920        N921   1.357       .  A
C920        H930   1.082       .  S
N921        C922   1.362       .  A
N921        C993   1.441       .  S
C922        H928   1.082       .  S
C923        N924   1.355       .  A
C923        H925   1.082       .  S
N924        C926   1.353       .  A
N924       C1002   1.444       .  S
C926        H927   1.081       .  S
C931        C933   1.532       .  S
C931        C934   1.538       .  S
C931        C986   1.511       .  S
C932        C982   1.511       .  S
C934        C945   1.379       .  A
C935        C949   1.386       .  A
C935        C938   1.421       .  A
C936        C939   1.378       .  A
C938        C946   1.388       .  A
C939        N940   1.359       .  A
C939        H952   1.082       .  S
N940        C941   1.358   1_565  A
N940        C989   1.441       .  S
C943        H953   1.083   1_545  S
N944        C945   1.363   1_455  A
N944        C997   1.432       .  S
C945        H951   1.082       .  S
C946        N947   1.350       .  A
C946        H948   1.081       .  S
N947        C949   1.355       .  A
N947        C978   1.445       .  S
C949        H950   1.082       .  S
O954        C970   1.278       .  A
O954       Zn960   2.048       .  S
C955        O971   1.274       .  A
C955        O968   1.274       .  A
C955        C985   1.472       .  S
O956        C969   1.275       .  A
O956       Cd963   2.071       .  S
O957        C975   1.276       .  A
O957       Cd966   2.082       .  S
O958        C972   1.276       .  A
O958       Cd962   2.086       .  S
O959        C970   1.275       .  A
O959       Cd962   2.076       .  S
Zn960       O971   2.021       .  S
Zn960       O973   2.027       .  S
Zn960       O965   1.952       .  S
O961        C972   1.276       .  A
O961       Cd966   2.075       .  S
Cd962       O964   2.071       .  S
Cd962       O965   2.002       .  S
Cd963       O967   2.065       .  S
Cd963       O976   2.078       .  S
Cd963       O965   2.007       .  S
O964        C974   1.277       .  A
O965       Cd966   2.004       .  S
Cd966       O968   2.068       .  S
O967        C974   1.272       .  A
C969        O973   1.275       .  A
C970        C977   1.483       .  S
C972        C994   1.481       .  S
C974        C981   1.475       .  S
C975        O976   1.276       .  A
C975        C990   1.479       .  S
C977        C978   1.346       .  D
C977        H979   1.085       .  S
C978        H980   1.087       .  S
C981        C982   1.340       .  D
C981        H983   1.083       .  S
C982        H984   1.087       .  S
C985        C986   1.344       .  D
C985        H987   1.087       .  S
C986        H988   1.086       .  S
C989        C990   1.346       .  D
C989        H991   1.087       .  S
C990        H992   1.086       .  S
C993        C994   1.346       .  D
C993        H995   1.087       .  S
C994        H996   1.085       .  S
C997        C998   1.337   1_455  D
C998       H1000   1.087       .  S
C1001      C1002   1.345       .  D
C1001      H1003   1.086       .  S
C1002      H1004   1.086       .  S
C1005      C1006   1.343       .  D
C1005      H1007   1.085       .  S
C1006      H1008   1.086       .  S
C1009      C1010   1.346       .  D
C1009      H1011   1.086       .  S
C1010      H1012   1.086       .  S
C1013      C1014   1.342       .  D
C1013      H1015   1.087       .  S
C1014      H1016   1.085       .  S
C1017      C1018   1.339       .  D
C1017      H1019   1.087       .  S
C1018      H1020   1.086       .  S
C1021      C1022   1.348       .  D
C1021      H1023   1.086       .  S
C1022      H1024   1.086       .  S
C1025      C1026   1.336       .  D
C1025      H1027   1.087       .  S
C1026      H1028   1.086       .  S
C1029      C1030   1.347       .  D
C1029      H1031   1.087       .  S
C1030      H1032   1.086       .  S
C1033      C1034   1.338       .  D
C1033      H1035   1.087       .  S
C1037      C1038   1.350       .  D
C1037      H1039   1.085       .  S
C1038      H1040   1.087       .  S
C1041      C1042   1.348       .  D
C1041      H1043   1.088       .  S
C1042      H1044   1.086       .  S
C1045      C1046   1.337       .  D
C1045      H1047   1.085       .  S
C1046      H1048   1.086       .  S
C1049      C1050   1.335       .  D
C1049      H1051   1.087       .  S
C1050      H1052   1.087       .  S
C1053      C1054   1.334       .  D
C1053      H1055   1.086       .  S
C1054      H1056   1.087       .  S
