geometry optimzed in LAMMPS
_audit_creation_date              2020-11-30 
_audit_creation_method            'lammps2cif' 
_symmetry_space_group_name_H-M    'P1' 
_symmetry_Int_Tables_number       1 
_symmetry_cell_setting            triclinic 
loop_ 
_symmetry_equiv_pos_as_xyz 
  x,y,z 
_cell_length_a                    30.0338943 
_cell_length_b                    37.855635980866424 
_cell_length_c                    36.22094646353353 
_cell_angle_alpha                 89.87165052048195 
_cell_angle_beta                  89.9924920287728 
_cell_angle_gamma                 90.36610367290075 
loop_ 
_atom_site_label 
_atom_site_type_symbol 
_atom_site_fract_x 
_atom_site_fract_y 
_atom_site_fract_z 
_atom_site_charge 
C1          C  0.94456444  0.25020242  0.14521952     0.85600
C2          C  0.92570281  0.24221851  0.10653108    -0.54700
C3          C  0.95574072  0.24463779  0.07874114     0.08500
C4          C  0.00233433  0.25560926  0.09139802     0.19500
C5          C  0.98475385  0.22520205  0.14926236    -0.55400
C6          C  0.01488660  0.22797525  0.12078735     0.08600
C7          C  0.96513858  0.28735698  0.14050997    -0.54900
C8          C  0.99565401  0.28999749  0.11272539     0.09200
H9          H  0.89067265  0.23793835  0.10060131     0.13700
H10         H  0.02676636  0.25782626  0.06843916    -0.00600
H11         H  0.98632487  0.20454809  0.17005842     0.14000
H12         H  0.95590153  0.31002542  0.15702427     0.13800
C13         C  0.51814370  0.11514145  0.39501816     0.85600
C14         C  0.53602770  0.12327319  0.35608403    -0.54700
C15         C  0.50551221  0.12038455  0.32874750     0.08500
C16         C  0.45940909  0.10892363  0.34204920     0.19500
C17         C  0.47755814  0.13970256  0.39943284    -0.55400
C18         C  0.44692040  0.13654810  0.37135492     0.08600
C19         C  0.49815483  0.07772741  0.39086311    -0.54900
C20         C  0.46723849  0.07465776  0.36347690     0.09200
H21         H  0.57085443  0.12777195  0.34956071     0.13700
H22         H  0.43460875  0.10635076  0.31941677    -0.00600
H23         H  0.47614483  0.16049598  0.41998938     0.14000
H24         H  0.50813737  0.05522089  0.40743527     0.13800
Zr25       Zr  0.64136273  0.04830797  0.15400768     2.17500
O26         O  0.65714616  0.99761419  0.11468833    -0.52200
O27         O  0.68270209  0.00368038  0.19094887    -0.75400
O28         O  0.68756986  0.06352195  0.09947187    -0.82200
O29         O  0.53803834  0.01151265  0.19571017    -0.84000
O30         O  0.71639835  0.11925122  0.10456478    -0.79600
O31         O  0.57410778  0.01254135  0.14085757    -0.91200
O32         O  0.72022147  0.03619160  0.23262170    -0.77200
O33         O  0.69411215  0.08445746  0.18664795    -0.86700
O34         O  0.61845916  0.04632881  0.21730042    -0.86400
O35         O  0.63339613  0.10790999  0.13044527    -0.73100
O36         O  0.56650057  0.07135099  0.15576879    -0.85300
Zr37       Zr  0.59176505  0.16434294  0.22783475     2.26400
Zr38       Zr  0.68735711  0.14363506  0.16265481     2.06300
Zr39       Zr  0.54516829  0.07063931  0.21910929     2.10000
Zr40       Zr  0.67028560  0.08240566  0.24957311     1.78800
O41         O  0.46920330  0.06882621  0.19563086    -0.94100
O42         O  0.74298312  0.10197557  0.27160142    -0.41900
O43         O  0.59707536  0.10600049  0.25303412    -0.78500
O44         O  0.66636119  0.14103434  0.22643718    -0.97200
O45         O  0.61314074  0.16675820  0.16470259    -0.90500
O46         O  0.53805972  0.12943208  0.19579282    -0.93300
C47         C  0.70958621  0.00655835  0.21852718     1.00400
C48         C  0.54445746  0.99993870  0.16306990     1.13300
C49         C  0.70935144  0.09040480  0.08646597     1.04100
O50         O  0.76645410  0.13636497  0.17509853    -0.95500
O51         O  0.70478903  0.19978861  0.19505158    -0.91200
O52         O  0.65007520  0.20799409  0.23759819    -0.84400
C53         C  0.68731918  0.21646159  0.22254553     1.10800
O54         O  0.54748705  0.10015239  0.07449907    -0.97500
Zr55       Zr  0.56024409  0.13050139  0.13298836     1.88900
O56         O  0.54226515  0.20644201  0.19763839    -0.74100
O57         O  0.69825295  0.19268005  0.11987425    -0.53400
O58         O  0.58508669  0.16701597  0.08132307    -0.98100
O59         O  0.48145953  0.11815017  0.12227275    -0.55300
O60         O  0.52352696  0.18598729  0.14094318    -0.74600
C61         C  0.52241236  0.20923619  0.16640214     0.97700
O62         O  0.57932866  0.21209954  0.27174028    -0.63500
O63         O  0.52714210  0.03167238  0.27083391    -0.58300
O64         O  0.55039826  0.14461685  0.28210696    -0.94900
O65         O  0.50499446  0.09839865  0.26841937    -0.93400
O66         O  0.64867412  0.03762433  0.29460346    -0.93700
O67         O  0.67412246  0.10264886  0.31326870    -0.92500
C68         C  0.51974142  0.12209137  0.29028982     1.16500
H69         H  0.61766750  0.02257510  0.22706632     0.32500
H70         H  0.68717497  0.15323599  0.24219896     0.43300
H71         H  0.50830384  0.13829457  0.19946794     0.36900
H72         H  0.63645585  0.10966843  0.10411831     0.33400
H73         H  0.75643171  0.08075648  0.28294233     0.25100
H74         H  0.73055772  0.19279036  0.11435633     0.31100
H75         H  0.55820099  0.17978622  0.07301978     0.37000
H76         H  0.61748791  0.04331108  0.30099312     0.31400
H77         H  0.49911528  0.01963597  0.26364633     0.30300
H78         H  0.47126860  0.05665347  0.17153862     0.32000
H79         H  0.47205256  0.13600980  0.10389131     0.31000
H80         H  0.66201193  0.12690562  0.31256921     0.35000
H81         H  0.54663270  0.21391591  0.27419083     0.27700
H82         H  0.69000741  0.99636858  0.11294111     0.31900
H83         H  0.53157926  0.11708910  0.05842574     0.34800
H84         H  0.54992135  0.01287778  0.27023177     0.27400
H85         H  0.58975811  0.20322068  0.29598801     0.40300
H86         H  0.78159281  0.14588460  0.15288758     0.30300
H87         H  0.76061796  0.10614888  0.24887876     0.37900
H88         H  0.46608434  0.12517499  0.14524648     0.29800
H89         H  0.68386451  0.18499254  0.09663497     0.29900
H90         H  0.64703000  0.00429363  0.08961743     0.30100
C91         C  0.71639946  0.09124960  0.04481505     0.85600
C92         C  0.73355777  0.05728345  0.02730855    -0.54700
C93         C  0.73676853  0.05773218  0.48914085     0.08500
C94         C  0.72068118  0.09303297  0.47209541     0.19500
C95         C  0.74688291  0.12049437  0.02939084    -0.55400
C96         C  0.74902938  0.12163669  0.49127441     0.08600
C97         C  0.67199544  0.09707090  0.52569711    -0.54900
C98         C  0.67341968  0.09841201  0.48820563     0.09200
H99         H  0.74310962  0.03455436  0.04375850     0.13700
H100        H  0.72228805  0.09380298  0.44147488    -0.00600
H101        H  0.76463152  0.13914547  0.04685964     0.14000
H102        H  0.64098725  0.10165850  0.04143672     0.13800
Zr103      Zr  0.82071402  0.31773295  0.40328658     2.17500
O104        O  0.80547489  0.36794403  0.36274963    -0.52200
O105        O  0.77984287  0.02864158  0.44102731    -0.75400
O106        O  0.77429028  0.30312641  0.34893305    -0.82200
O107        O  0.93028521  0.01718642  0.44135358    -0.84000
O108        O  0.74501775  0.24758569  0.35418950    -0.79600
O109        O  0.88713363  0.02126196  0.39002011    -0.91200
O110        O  0.74330813  0.99668950  0.48401684    -0.77200
O111        O  0.76788170  0.28148326  0.43587297    -0.86700
O112        O  0.84431556  0.31888666  0.46623253    -0.86400
O113        O  0.82851610  0.25819763  0.37951425    -0.73100
O114        O  0.89510173  0.29364842  0.40457791    -0.85300
Zr115      Zr  0.87030525  0.20092523  0.47694745     2.26400
Zr116      Zr  0.77452142  0.22238999  0.41174530     2.06300
Zr117      Zr  0.91720085  0.29373473  0.46770735     2.10000
Zr118      Zr  0.79217549  0.28296973  0.49868894     1.78800
O119        O  0.99372801  0.29334518  0.44547330    -0.94100
O120        O  0.71909528  0.26361552  0.52017815    -0.41900
O121        O  0.86517423  0.25899264  0.50207590    -0.78500
O122        O  0.79580726  0.22455630  0.47540612    -0.97200
O123        O  0.84835812  0.19856327  0.41384805    -0.90500
O124        O  0.92407871  0.23520942  0.44430047    -0.93300
C125        C  0.75352675  0.02608556  0.46914965     1.00400
C126        C  0.91976660  0.03141230  0.41063555     1.13300
C127        C  0.75233899  0.27639412  0.33602755     1.04100
O128        O  0.69508170  0.22747736  0.42383639    -0.95500
O129        O  0.75757945  0.16617870  0.44441152    -0.91200
O130        O  0.81198633  0.15788936  0.48725046    -0.84400
C131        C  0.77483250  0.14961405  0.47215235     1.10800
O132        O  0.91450102  0.26447268  0.32282821    -0.97500
Zr133      Zr  0.90118021  0.23452014  0.38162107     1.88900
O134        O  0.92005811  0.15903086  0.44723898    -0.74100
O135        O  0.76320375  0.17465142  0.36766878    -0.53400
O136        O  0.87422094  0.19844670  0.33054094    -0.98100
O137        O  0.97989460  0.24625057  0.36965150    -0.55300
O138        O  0.93691344  0.17838862  0.38961584    -0.74600
C139        C  0.93916086  0.15576720  0.41579013     0.97700
O140        O  0.88556711  0.15202045  0.01940281    -0.63500
O141        O  0.93150071  0.33408776  0.01868417    -0.58300
O142        O  0.91003322  0.22046456  0.03231671    -0.94900
O143        O  0.95650448  0.26585133  0.01795552    -0.93400
O144        O  0.81834623  0.32664853  0.04325260    -0.93700
O145        O  0.78742217  0.26057468  0.06185227    -0.92500
C146        C  0.94114706  0.24268045  0.04029191     1.16500
H147        H  0.84582008  0.00903107  0.47586879     0.32500
H148        H  0.77484446  0.21253285  0.49124399     0.43300
H149        H  0.95378579  0.22624299  0.44780601     0.36900
H150        H  0.82525786  0.25673578  0.35330283     0.33400
H151        H  0.70561464  0.28476017  0.53154445     0.25100
H152        H  0.73142770  0.17611897  0.36053750     0.31100
H153        H  0.90066472  0.18547147  0.32168678     0.37000
H154        H  0.84596467  0.98557688  0.05248894     0.31400
H155        H  0.96283997  0.34180073  0.01542127     0.30300
H156        H  0.99282189  0.30525337  0.42112145     0.32000
H157        H  0.98842000  0.22894136  0.35049007     0.31000
H158        H  0.80215254  0.23725740  0.06115264     0.35000
H159        H  0.91822657  0.15215779  0.02283665     0.27700
H160        H  0.77171407  0.03583971  0.36170987     0.31900
H161        H  0.92908154  0.24703654  0.30654444     0.34800
H162        H  0.91364319  0.02151329  0.01390072     0.27400
H163        H  0.87326524  0.15930124  0.04359565     0.40300
H164        H  0.68051030  0.21815497  0.40132050     0.30300
H165        H  0.70167976  0.25969270  0.49731071     0.37900
H166        H  0.99573135  0.23818176  0.39205819     0.29800
H167        H  0.77979268  0.18207651  0.34531948     0.29900
H168        H  0.81531577  0.36087898  0.33774369     0.30100
C169        C  0.74561239  0.27547899  0.29441834     0.85600
C170        C  0.72936053  0.30957593  0.27661169    -0.54700
C171        C  0.72704364  0.30867616  0.23870537     0.08500
C172        C  0.74231158  0.27298440  0.22202907     0.19500
C173        C  0.71456908  0.24653899  0.27923233    -0.55400
C174        C  0.71303218  0.24481917  0.24135329     0.08600
C175        C  0.79046952  0.26857580  0.27588391    -0.54900
C176        C  0.78939415  0.26712928  0.23841476     0.09200
H177        H  0.72046907  0.33255786  0.29280452     0.13700
H178        H  0.74095347  0.27209427  0.19140958    -0.00600
H179        H  0.69650556  0.22817380  0.29689333     0.14000
H180        H  0.82097943  0.26446238  0.29127811     0.13800
C181        C  0.44572370  0.28060420  0.12567687     0.85600
C182        C  0.42565674  0.28729112  0.16407012    -0.54700
C183        C  0.45524912  0.28539065  0.19223846     0.08500
C184        C  0.50240359  0.27592266  0.18030327     0.19500
C185        C  0.48514176  0.30697642  0.12283646    -0.55400
C186        C  0.51477094  0.30439038  0.15169668     0.08600
C187        C  0.46769316  0.24399276  0.13001709    -0.54900
C188        C  0.49728305  0.24169647  0.15841435     0.09200
H189        H  0.39034966  0.29113381  0.16906509     0.13700
H190        H  0.52623068  0.27404431  0.20369992    -0.00600
H191        H  0.48619853  0.99464577  0.10269670     0.14000
H192        H  0.45974122  0.22104245  0.11344356     0.13800
C193        C  0.01885501  0.08585850  0.37798568     0.85600
C194        C  0.03622552  0.07667451  0.41651109    -0.54700
C195        C  0.00563912  0.07879280  0.44376570     0.08500
C196        C  0.95915489  0.08905361  0.43015954     0.19500
C197        C  0.97966190  0.05949457  0.37246516    -0.55400
C198        C  0.94825550  0.06139210  0.40021995     0.08600
C199        C  0.99616904  0.12187900  0.38143647    -0.54900
C200        C  0.96535177  0.12371599  0.40885727     0.09200
H201        H  0.07096307  0.07062372  0.42203030     0.14500
H202        H  0.93395808  0.09046536  0.45258359    -0.00600
H203        H  0.97927947  0.03869317  0.35193298     0.14000
H204        H  0.00418774  0.14415819  0.36360917     0.13800
Zr205      Zr  0.14137989  0.15099200  0.11986383     2.17500
O206        O  0.15792648  0.20105891  0.16014334    -0.52200
O207        O  0.18311868  0.19599302  0.08259079    -0.75400
O208        O  0.18668186  0.13533168  0.17481913    -0.82200
O209        O  0.03706878  0.18651910  0.07798987    -0.84000
O210        O  0.21729997  0.08070277  0.16794257    -0.79600
O211        O  0.07468688  0.18718441  0.13224974    -0.91200
O212        O  0.22022278  0.16413093  0.04045540    -0.77200
O213        O  0.19380733  0.11536013  0.08691352    -0.86700
O214        O  0.11846932  0.15308732  0.05660821    -0.86400
O215        O  0.13314035  0.09104096  0.14308015    -0.73100
O216        O  0.06656978  0.12708181  0.11741799    -0.85300
Zr217      Zr  0.09123209  0.03497547  0.04452309     2.26400
Zr218      Zr  0.18676133  0.05591874  0.11035046     2.06300
Zr219      Zr  0.04523242  0.12795128  0.05403080     2.10000
Zr220      Zr  0.17005652  0.11771318  0.02390872     1.78800
O221        O  0.96934883  0.12913467  0.07763213    -0.94100
O222        O  0.24353452  0.10036039  0.00221117    -0.41900
O223        O  0.09694245  0.09340926  0.01970095    -0.78500
O224        O  0.16578604  0.05898911  0.04662665    -0.97200
O225        O  0.11257077  0.03210446  0.10765824    -0.90500
O226        O  0.03773331  0.06908189  0.07699324    -0.93300
C227        C  0.20965523  0.19355750  0.05468006     1.00400
C228        C  0.04451849  0.19894234  0.11013958     1.13300
C229        C  0.20946545  0.10879293  0.18695900     1.04100
O230        O  0.26566130  0.06078928  0.09576591    -0.95500
O231        O  0.20381736  0.00015385  0.07754273    -0.91200
O232        O  0.14984678  0.32532484  0.03463479    -0.84400
C233        C  0.18689879  0.31702908  0.04982376     1.10800
O234        O  0.04837848  0.09715659  0.19896721    -0.97500
Zr235      Zr  0.05996650  0.06774627  0.13983551     1.88900
O236        O  0.04164196  0.32565176  0.07439226    -0.74100
O237        O  0.19736847  0.00765365  0.15406597    -0.53400
O238        O  0.08429406  0.02941216  0.19001630    -0.98100
O239        O  0.98169938  0.08126124  0.15045804    -0.55300
O240        O  0.02213657  0.01238508  0.13152633    -0.74600
C241        C  0.02127133  0.32255511  0.10539760     0.97700
O242        O  0.07796870  0.98625843  0.50191604    -0.63500
O243        O  0.02751912  0.16734567  0.00273667    -0.58300
O244        O  0.05073263  0.05459036  0.98982198    -0.94900
O245        O  0.00534362  0.10015494  0.00411940    -0.93400
O246        O  0.14504479  0.16265223  0.98049594    -0.93700
O247        O  0.17565739  0.09751438  0.96026840    -0.92500
C248        C  0.01977213  0.07626855  0.48235287     1.16500
H249        H  0.11760524  0.17694971  0.04712990     0.32500
H250        H  0.18673116  0.04721367  0.03080086     0.43300
H251        H  0.00791984  0.06010409  0.07325960     0.36900
H252        H  0.13624303  0.08888335  0.16933571     0.33400
H253        H  0.25697113  0.12211469  0.99170095     0.25100
H254        H  0.22935885  0.00862918  0.16064754     0.31100
H255        H  0.05656298  0.02065499  0.20177043     0.37000
H256        H  0.11561874  0.15407655  0.97187676     0.31400
H257        H  0.99904592  0.17855547  0.00969421     0.30300
H258        H  0.97111719  0.14276052  0.10088896     0.32000
H259        H  0.97220174  0.06497774  0.17042822     0.31000
H260        H  0.14908600  0.08232485  0.95656838     0.35000
H261        H  0.04526146  0.98549002  0.49841696     0.27700
H262        H  0.19078062  0.20202652  0.16240327     0.31900
H263        H  0.03141052  0.08035573  0.21463183     0.34800
H264        H  0.04981592  0.18668482  0.00403417     0.27400
H265        H  0.08962658  0.99603641  0.97645368     0.40300
H266        H  0.28022038  0.04378270  0.11261418     0.30300
H267        H  0.26077756  0.09583805  0.02502607     0.37900
H268        H  0.96580804  0.07245670  0.12835634     0.29800
H269        H  0.18162008  0.01509936  0.17673323     0.29900
H270        H  0.14702952  0.19424239  0.18498059     0.30100
C271        C  0.21787137  0.10721475  0.22850841     0.85600
C272        C  0.23469092  0.14138707  0.24623334    -0.54700
C273        C  0.23846137  0.14008749  0.28406800     0.08500
C274        C  0.22441198  0.10411521  0.30074424     0.19500
C275        C  0.24977357  0.07850987  0.24265405    -0.55400
C276        C  0.25282702  0.07662425  0.28052080     0.08600
C277        C  0.17387434  0.09935712  0.24839116    -0.54900
C278        C  0.17693470  0.09742975  0.28582440     0.09200
H279        H  0.24247825  0.16480048  0.23008541     0.13700
H280        H  0.22720025  0.10279421  0.33129473    -0.00600
H281        H  0.26695138  0.06033210  0.22447436     0.14000
H282        H  0.14235231  0.09661896  0.23399280     0.13800
Zr283      Zr  0.32141867  0.21421810  0.37003336     2.17500
O284        O  0.30427724  0.16460885  0.41094931    -0.52200
O285        O  0.28061067  0.16918083  0.33262040    -0.75400
O286        O  0.27578276  0.23013855  0.42454946    -0.82200
O287        O  0.42382300  0.17763508  0.32816453    -0.84000
O288        O  0.24463814  0.28453269  0.41742290    -0.79600
O289        O  0.38753924  0.17767272  0.38292563    -0.91200
O290        O  0.24276783  0.20121859  0.29097131    -0.77200
O291        O  0.26902868  0.25008668  0.33719571    -0.86700
O292        O  0.34398840  0.21228984  0.30663010    -0.86400
O293        O  0.33016096  0.27405896  0.39296453    -0.73100
O294        O  0.39660366  0.23746950  0.36805010    -0.85300
Zr295      Zr  0.37228985  0.32983910  0.29462207     2.26400
Zr296      Zr  0.27658256  0.30941692  0.36044955     2.06300
Zr297      Zr  0.41751854  0.23670641  0.30464761     2.10000
Zr298      Zr  0.29230692  0.24802641  0.27411987     1.78800
O299        O  0.49288045  0.23770884  0.32940453    -0.94100
O300        O  0.21875259  0.26604071  0.25303797    -0.41900
O301        O  0.36588529  0.27142917  0.27027374    -0.78500
O302        O  0.29732365  0.30656904  0.29677392    -0.97200
O303        O  0.35109739  0.33269776  0.35783056    -0.90500
O304        O  0.42580915  0.29556420  0.32711456    -0.93300
C305        C  0.25410854  0.17171590  0.30471727     1.00400
C306        C  0.41711998  0.16552221  0.36060682     1.13300
C307        C  0.25278070  0.25654352  0.43654543     1.04100
O308        O  0.19768162  0.30407591  0.34592507    -0.95500
O309        O  0.26077608  0.03209498  0.32718932    -0.91200
O310        O  0.31497098  0.03970052  0.28385801    -0.84400
C311        C  0.27817576  0.04833382  0.29915993     1.10800
O312        O  0.41536982  0.26601825  0.44853194    -0.97500
Zr313      Zr  0.40367978  0.29685887  0.39006364     1.88900
O314        O  0.42261913  0.03838722  0.32506166    -0.74100
O315        O  0.26532158  0.02315085  0.40524507    -0.53400
O316        O  0.37924336  0.00076263  0.44156491    -0.98100
O317        O  0.48287414  0.28594275  0.39998265    -0.55300
O318        O  0.44100575  0.01895682  0.38228633    -0.74600
C319        C  0.44238054  0.04176142  0.35628096     0.97700
O320        O  0.38539820  0.04492470  0.25170459    -0.63500
O321        O  0.44044492  0.19726546  0.25507202    -0.58300
O322        O  0.41159725  0.31023918  0.23925592    -0.94900
O323        O  0.45382035  0.26218158  0.25183529    -0.93400
O324        O  0.31457330  0.20404652  0.22888720    -0.93700
O325        O  0.28592704  0.27038742  0.21123130    -0.92500
C326        C  0.44044882  0.28676178  0.23048752     1.16500
H327        H  0.34480205  0.18858533  0.29685069     0.32500
H328        H  0.27642190  0.31848811  0.28094335     0.43300
H329        H  0.45567394  0.30445690  0.32318693     0.36900
H330        H  0.32666090  0.27616103  0.41913593     0.33400
H331        H  0.20651674  0.24521130  0.23993044     0.25100
H332        H  0.23367278  0.02112423  0.41271839     0.31100
H333        H  0.40656860  0.01298807  0.45016856     0.37000
H334        H  0.34611430  0.20972384  0.22339901     0.31400
H335        H  0.46876774  0.18681688  0.26359893     0.30300
H336        H  0.49138440  0.22304581  0.35204915     0.32000
H337        H  0.49136046  0.30145738  0.42083426     0.31000
H338        H  0.31015648  0.28811403  0.20891789     0.35000
H339        H  0.41806610  0.38092415  0.25023517     0.27700
H340        H  0.27142047  0.16385224  0.41322927     0.31900
H341        H  0.43191517  0.28265352  0.46461097     0.34800
H342        H  0.41877872  0.17743535  0.25545800     0.27400
H343        H  0.37649765  0.03605769  0.22701963     0.40300
H344        H  0.18877157  0.28048199  0.35530924     0.30300
H345        H  0.20068010  0.26770252  0.27583614     0.37900
H346        H  0.49828714  0.29651729  0.37843749     0.29800
H347        H  0.28233688  0.01572037  0.42731122     0.29900
H348        H  0.31527847  0.17153282  0.43569434     0.30100
C349        C  0.24500252  0.25817140  0.47811129     0.85600
C350        C  0.22848238  0.22414746  0.99624858    -0.54700
C351        C  0.22592201  0.22525687  0.03418155     0.08500
C352        C  0.24139545  0.26108657  0.05065455     0.19500
C353        C  0.21424533  0.28710016  0.99309168    -0.55400
C354        C  0.21249438  0.28894587  0.03102451     0.08600
C355        C  0.28983970  0.26558194  0.99694239    -0.54900
C356        C  0.28843775  0.26703057  0.03434897     0.09200
H357        H  0.21872428  0.20112119  0.48023882     0.13700
H358        H  0.24009181  0.26220434  0.08127138    -0.00600
H359        H  0.19675696  0.30558585  0.47482803     0.14000
H360        H  0.32069554  0.26937884  0.98179943     0.13800
C361        C  0.06401277  0.06580682  0.32123969    -0.22200
C362        C  0.05848861  0.08795747  0.35191039    -0.10300
C363        C  0.09295952  0.11230365  0.36065912     0.28600
C364        C  0.13177344  0.11394339  0.33993455    -0.22200
C365        C  0.13711898  0.09224931  0.30927656    -0.10300
C366        C  0.10300026  0.06800346  0.29995753     0.28600
F367        F  0.10769265  0.04601345  0.27070290    -0.20800
H368        H  0.03872896  0.04670857  0.31372988     0.17000
H369        H  0.15716473  0.13313604  0.34727371     0.17000
F370        F  0.08928433  0.13449466  0.38992607    -0.20800
C371        C  0.40652963  0.25663417  0.06809727    -0.22200
C372        C  0.40989587  0.28289084  0.09547014    -0.10300
C373        C  0.37458705  0.30744359  0.09818995     0.28600
C374        C  0.33447649  0.30164730  0.07924552    -0.22200
C375        C  0.32986583  0.27269783  0.05557677    -0.10300
C376        C  0.36693446  0.25123118  0.04883890     0.28600
F377        F  0.36441857  0.22412086  0.02441486    -0.20800
H378        H  0.43399994  0.23937685  0.06190789     0.17000
H379        H  0.30713385  0.31983702  0.08284653     0.17000
F380        F  0.37800415  0.33610920  0.12049643    -0.20800
C381        C  0.59178403  0.09027916  0.47692802    -0.22200
C382        C  0.63257141  0.10588543  0.46663447    -0.10300
C383        C  0.63291871  0.13071950  0.43797253     0.28600
C384        C  0.59411188  0.13736034  0.41798661    -0.22200
C385        C  0.55451935  0.11793813  0.42472370    -0.10300
C386        C  0.55300583  0.09668901  0.45672987     0.28600
F387        F  0.51446499  0.08116696  0.46797557    -0.20800
H388        H  0.59006137  0.07230457  0.50019523     0.17000
H389        H  0.59582851  0.15711286  0.39642193     0.17000
F390        F  0.67051682  0.14894770  0.42947598    -0.20800
C391        C  0.86966327  0.22747338  0.16949818    -0.22200
C392        C  0.90878099  0.24761573  0.17546186    -0.10300
C393        C  0.90999797  0.26958805  0.20687420     0.28600
C394        C  0.87111834  0.27584201  0.22707501    -0.22200
C395        C  0.83053148  0.25966869  0.21713060    -0.10300
C396        C  0.83065463  0.23429900  0.18910644     0.28600
F397        F  0.79320282  0.21591149  0.18065555    -0.20800
H398        H  0.86834643  0.20733306  0.14839320     0.17000
H399        H  0.87253044  0.29418008  0.24996346     0.17000
F400        F  0.94833080  0.28570273  0.21767038    -0.20800
C401        C  0.94411707  0.24992629  0.64527037     0.85600
C402        C  0.92508832  0.24247927  0.60654943    -0.54700
C403        C  0.95502463  0.24515576  0.57874048     0.08500
C404        C  0.00170158  0.25591165  0.59137979     0.19500
C405        C  0.98426670  0.22485649  0.64887221    -0.55400
C406        C  0.01434093  0.22796703  0.62040471     0.08600
C407        C  0.96477291  0.28712979  0.64104796    -0.54900
C408        C  0.99516289  0.29008411  0.61316741     0.09200
H409        H  0.89004477  0.23827117  0.60063497     0.13700
H410        H  0.02602313  0.25831258  0.56836227    -0.00600
H411        H  0.98593972  0.20399926  0.66943832     0.14000
H412        H  0.95568393  0.30956090  0.65797555     0.13800
C413        C  0.51760829  0.11531795  0.89535523     0.85600
C414        C  0.53598941  0.12318915  0.85649816    -0.54700
C415        C  0.50575152  0.12021306  0.82894774     0.08500
C416        C  0.45945159  0.10898533  0.84195506     0.19500
C417        C  0.47708030  0.14000535  0.89930619    -0.55400
C418        C  0.44675179  0.13676189  0.87101947     0.08600
C419        C  0.49752548  0.07793333  0.89122272    -0.54900
C420        C  0.46688499  0.07482308  0.86362681     0.09200
H421        H  0.57091705  0.12759222  0.85024564     0.13700
H422        H  0.43491314  0.10636680  0.81913412    -0.00600
H423        H  0.47538707  0.16079995  0.91984300     0.14000
H424        H  0.50731765  0.05543320  0.90787474     0.13800
Zr425      Zr  0.64136607  0.04792122  0.65382656     2.17500
O426        O  0.65701700  0.99701110  0.61481085    -0.52200
O427        O  0.68245779  0.00316052  0.69083097    -0.75400
O428        O  0.68755945  0.06316884  0.59919133    -0.82200
O429        O  0.53892489  0.01102130  0.69603121    -0.84000
O430        O  0.71669758  0.11879002  0.60439239    -0.79600
O431        O  0.57362129  0.01276433  0.64064884    -0.91200
O432        O  0.72082629  0.03600997  0.73156815    -0.77200
O433        O  0.69424852  0.08398854  0.68637788    -0.86700
O434        O  0.61867475  0.04590844  0.71721273    -0.86400
O435        O  0.63342009  0.10752978  0.63028973    -0.73100
O436        O  0.56655858  0.07107138  0.65579357    -0.85300
Zr437      Zr  0.59207735  0.16382753  0.72787187     2.26400
Zr438      Zr  0.68752621  0.14315221  0.66242436     2.06300
Zr439      Zr  0.54539345  0.07027101  0.71916118     2.10000
Zr440      Zr  0.67076496  0.08184965  0.74938317     1.78800
O441        O  0.46962980  0.06867440  0.69510782    -0.94100
O442        O  0.74397141  0.10043822  0.77122886    -0.41900
O443        O  0.59753322  0.10549622  0.75305900    -0.78500
O444        O  0.66664803  0.14043586  0.72621776    -0.97200
O445        O  0.61336591  0.16640718  0.66472742    -0.90500
O446        O  0.53819995  0.12908560  0.69597380    -0.93300
C447        C  0.70978038  0.00623108  0.71808694     1.00400
C448        C  0.54449716  0.99985755  0.66313914     1.13300
C449        C  0.70950294  0.09001330  0.58622721     1.04100
O450        O  0.76667849  0.13566171  0.67456625    -0.95500
O451        O  0.70496202  0.19918766  0.69505424    -0.91200
O452        O  0.65037991  0.20728567  0.73775550    -0.84400
C453        C  0.68755987  0.21576229  0.72265448     1.10800
O454        O  0.54727664  0.10006435  0.57464631    -0.97500
Zr455      Zr  0.56027949  0.13025023  0.63314227     1.88900
O456        O  0.54255866  0.20613184  0.69774882    -0.74100
O457        O  0.69800818  0.19178585  0.61906462    -0.53400
O458        O  0.58500143  0.16667431  0.58138184    -0.98100
O459        O  0.48142439  0.11783982  0.62285807    -0.55300
O460        O  0.52325141  0.18562555  0.64121806    -0.74600
C461        C  0.52235844  0.20891803  0.66664639     0.97700
O462        O  0.58005614  0.21151020  0.77188886    -0.63500
O463        O  0.52639289  0.03165640  0.77092410    -0.58300
O464        O  0.55083409  0.14410542  0.78223210    -0.94900
O465        O  0.50563962  0.09766725  0.76886712    -0.93400
O466        O  0.64825031  0.03694956  0.79404117    -0.93700
O467        O  0.67726765  0.10308882  0.81261892    -0.92500
C468        C  0.52027347  0.12155282  0.79055921     1.16500
H469        H  0.61783489  0.02215498  0.72697962     0.32500
H470        H  0.68755008  0.15255977  0.74195930     0.43300
H471        H  0.50849017  0.13799137  0.69977392     0.36900
H472        H  0.63648308  0.10928246  0.60395443     0.33400
H473        H  0.75752812  0.07886999  0.78172835     0.25100
H474        H  0.72965512  0.19050528  0.61150799     0.31100
H475        H  0.55876586  0.18092132  0.57441442     0.37000
H476        H  0.61924177  0.04516445  0.80362560     0.31400
H477        H  0.50060771  0.01745645  0.76240132     0.30300
H478        H  0.47105814  0.05376304  0.67272966     0.32000
H479        H  0.47161130  0.13616075  0.60513405     0.31000
H480        H  0.66359332  0.12681594  0.81218197     0.35000
H481        H  0.54736479  0.21373502  0.77391898     0.27700
H482        H  0.68983630  0.99618183  0.61236319     0.31900
H483        H  0.52934172  0.11642473  0.55941713     0.34800
H484        H  0.55119079  0.01460485  0.77257456     0.27400
H485        H  0.58987409  0.20238151  0.79621510     0.40300
H486        H  0.78181321  0.14754907  0.65362549     0.30300
H487        H  0.76125551  0.10525639  0.74845536     0.37900
H488        H  0.46631031  0.12413646  0.64617735     0.29800
H489        H  0.68101838  0.18475595  0.59682116     0.29900
H490        H  0.64599420  0.00335319  0.58991060     0.30100
C491        C  0.71677684  0.09090739  0.54456753     0.85600
C492        C  0.73420918  0.05702386  0.52710445    -0.54700
C493        C  0.73604985  0.05798339  0.98934292     0.08500
C494        C  0.72000106  0.09334413  0.97235544     0.19500
C495        C  0.74714635  0.12028130  0.52920242    -0.55400
C496        C  0.74862396  0.12183119  0.99147120     0.08600
C497        C  0.67155402  0.09756396  0.02609369    -0.54900
C498        C  0.67279849  0.09887423  0.98860884     0.09200
H499        H  0.74370394  0.03429151  0.54356796     0.13700
H500        H  0.72149008  0.09413601  0.94173314    -0.00600
H501        H  0.76466483  0.13903107  0.54671176     0.14000
H502        H  0.64136253  0.10110825  0.54096931     0.13800
Zr503      Zr  0.82069590  0.31763532  0.90329412     2.17500
O504        O  0.80482328  0.36768357  0.86267517    -0.52200
O505        O  0.77946499  0.02906540  0.94125313    -0.75400
O506        O  0.77421457  0.30290462  0.84891795    -0.82200
O507        O  0.93056849  0.01729208  0.94106450    -0.84000
O508        O  0.74499425  0.24736942  0.85432506    -0.79600
O509        O  0.88658022  0.02188267  0.89022804    -0.91200
O510        O  0.74322325  0.99693329  0.98425662    -0.77200
O511        O  0.76813593  0.28130929  0.93607153    -0.86700
O512        O  0.84458044  0.31876172  0.96615577    -0.86400
O513        O  0.82855614  0.25811200  0.87947686    -0.73100
O514        O  0.89514356  0.29361288  0.90462676    -0.85300
Zr515      Zr  0.87050362  0.20068093  0.97698342     2.26400
Zr516      Zr  0.77472243  0.22225851  0.91180709     2.06300
Zr517      Zr  0.91743810  0.29354497  0.96773596     2.10000
Zr518      Zr  0.79280158  0.28276439  0.99882116     1.78800
O519        O  0.99421398  0.29303314  0.94609170    -0.94100
O520        O  0.71940287  0.26425424  0.02034931    -0.41900
O521        O  0.86564505  0.25867911  0.00216427    -0.78500
O522        O  0.79609238  0.22441616  0.97546497    -0.97200
O523        O  0.84856244  0.19842163  0.91383465    -0.90500
O524        O  0.92417740  0.23506192  0.94428050    -0.93300
C525        C  0.75314613  0.02639540  0.96936756     1.00400
C526        C  0.91958557  0.03178142  0.91058117     1.13300
C527        C  0.75226733  0.27612522  0.83608433     1.04100
O528        O  0.69513704  0.22678292  0.92343466    -0.95500
O529        O  0.75730762  0.16629873  0.94463988    -0.91200
O530        O  0.81196334  0.15770620  0.98719440    -0.84400
C531        C  0.77461274  0.14963939  0.97227596     1.10800
O532        O  0.91455195  0.26485050  0.82300933    -0.97500
Zr533      Zr  0.90126943  0.23454985  0.88161841     1.88900
O534        O  0.92052163  0.15909509  0.94742864    -0.74100
O535        O  0.76390729  0.17447591  0.86769639    -0.53400
O536        O  0.87509678  0.19821180  0.83044457    -0.98100
O537        O  0.97996774  0.24649478  0.86984651    -0.55300
O538        O  0.93729309  0.17866291  0.88985673    -0.74600
C539        C  0.93958113  0.15600203  0.91596930     0.97700
O540        O  0.88660895  0.15241950  0.51923013    -0.63500
O541        O  0.93196189  0.33477329  0.51812074    -0.58300
O542        O  0.90892002  0.22125382  0.53247003    -0.94900
O543        O  0.95626562  0.26593622  0.51779943    -0.93400
O544        O  0.81613633  0.32744815  0.54311132    -0.93700
O545        O  0.78550139  0.26069547  0.56161834    -0.92500
C546        C  0.94040832  0.24316942  0.54032575     1.16500
H547        H  0.84609014  0.00937191  0.97576720     0.32500
H548        H  0.77510441  0.21248022  0.99135155     0.43300
H549        H  0.95390433  0.22612498  0.94775269     0.36900
H550        H  0.82528266  0.25661153  0.85326802     0.33400
H551        H  0.70759049  0.28483782  0.03392236     0.25100
H552        H  0.73180862  0.17507117  0.86145462     0.31100
H553        H  0.90185048  0.18569951  0.82149334     0.37000
H554        H  0.84404225  0.98359966  0.55450698     0.31400
H555        H  0.96277458  0.34333281  0.51383476     0.30300
H556        H  0.99388141  0.30579225  0.92220319     0.32000
H557        H  0.98874222  0.22893798  0.85101290     0.31000
H558        H  0.80723604  0.24118554  0.56307865     0.35000
H559        H  0.91921083  0.15327115  0.52293361     0.27700
H560        H  0.77156454  0.03620327  0.86148841     0.31900
H561        H  0.92925394  0.24754242  0.80665201     0.34800
H562        H  0.91310221  0.02165010  0.51375233     0.27400
H563        H  0.87377063  0.15930379  0.54335897     0.40300
H564        H  0.68086781  0.21710382  0.90094920     0.30300
H565        H  0.70104162  0.26289937  0.99767023     0.37900
H566        H  0.99572760  0.23885127  0.89245209     0.29800
H567        H  0.77924109  0.18248206  0.84495099     0.29900
H568        H  0.81486954  0.36072379  0.83769274     0.30100
C569        C  0.74546696  0.27504929  0.79448009     0.85600
C570        C  0.72882972  0.30896462  0.77660514    -0.54700
C571        C  0.72644759  0.30797083  0.73870619     0.08500
C572        C  0.74211601  0.27238156  0.72208881     0.19500
C573        C  0.71472802  0.24585898  0.77936596    -0.55400
C574        C  0.71318981  0.24409027  0.74147805     0.08600
C575        C  0.79035042  0.26838710  0.77593706    -0.54900
C576        C  0.78925142  0.26680081  0.73847465     0.09200
H577        H  0.71981579  0.33192866  0.79276103     0.13700
H578        H  0.74071201  0.27143305  0.69147245    -0.00600
H579        H  0.69682672  0.22742500  0.79706283     0.14000
H580        H  0.82086375  0.26438378  0.79135022     0.13800
C581        C  0.44512031  0.28014581  0.62613675     0.85600
C582        C  0.42499368  0.28667185  0.66452199    -0.54700
C583        C  0.45464183  0.28485427  0.69266963     0.08500
C584        C  0.50186011  0.27559216  0.68074806     0.19500
C585        C  0.48432814  0.30673531  0.62339211    -0.55400
C586        C  0.51398254  0.30421493  0.65224175     0.08600
C587        C  0.46737974  0.24362145  0.63040245    -0.54900
C588        C  0.49701624  0.24137063  0.65877675     0.09200
H589        H  0.38968789  0.29056873  0.66948337     0.13700
H590        H  0.52567924  0.27377145  0.70415379    -0.00600
H591        H  0.48589686  0.99477783  0.60292453     0.14000
H592        H  0.45957468  0.22065473  0.61382051     0.13800
C593        C  0.01859908  0.08611803  0.87764191     0.85600
C594        C  0.03615225  0.07681440  0.91606628    -0.54700
C595        C  0.00569879  0.07899887  0.94341585     0.08500
C596        C  0.95922017  0.08933570  0.93003675     0.19500
C597        C  0.97924826  0.05988391  0.87219271    -0.55400
C598        C  0.94801761  0.06178058  0.90008355     0.08600
C599        C  0.99612941  0.12217468  0.88127272    -0.54900
C600        C  0.96555724  0.12400134  0.90884840     0.09200
H601        H  0.07091872  0.07077511  0.92146295     0.14500
H602        H  0.93416494  0.09077217  0.95256942    -0.00600
H603        H  0.97862576  0.03916244  0.85157975     0.14000
H604        H  0.00413130  0.14449083  0.86348717     0.13800
Zr605      Zr  0.14101353  0.15088643  0.62016336     2.17500
O606        O  0.15635687  0.20024824  0.66172830    -0.52200
O607        O  0.18252452  0.19615307  0.58290504    -0.75400
O608        O  0.18668522  0.13499488  0.67495893    -0.82200
O609        O  0.03643573  0.18630965  0.57774509    -0.84000
O610        O  0.21703610  0.08026769  0.66821468    -0.79600
O611        O  0.07467967  0.18772403  0.63172213    -0.91200
O612        O  0.21941878  0.16436654  0.54058060    -0.77200
O613        O  0.19357404  0.11534649  0.58717986    -0.86700
O614        O  0.11782423  0.15281807  0.55698149    -0.86400
O615        O  0.13286801  0.09086357  0.64321963    -0.73100
O616        O  0.06613398  0.12685723  0.61794520    -0.85300
Zr617      Zr  0.09123778  0.03457838  0.54503849     2.26400
Zr618      Zr  0.18673624  0.05581792  0.61060217     2.06300
Zr619      Zr  0.04468188  0.12744394  0.55450994     2.10000
Zr620      Zr  0.16952942  0.11764527  0.52423850     1.78800
O621        O  0.96869750  0.12814744  0.57797274    -0.94100
O622        O  0.24285272  0.10084986  0.50176455    -0.41900
O623        O  0.09654411  0.09305130  0.52019084    -0.78500
O624        O  0.16574284  0.05884054  0.54691356    -0.97200
O625        O  0.11259415  0.03185579  0.60819649    -0.90500
O626        O  0.03754555  0.06854073  0.57743988    -0.93300
C627        C  0.20883535  0.19378973  0.55481587     1.00400
C628        C  0.04420268  0.19911025  0.60968078     1.13300
C629        C  0.20933943  0.10838399  0.68714109     1.04100
O630        O  0.26586086  0.06124872  0.59693104    -0.95500
O631        O  0.20411582  0.00004514  0.57780208    -0.91200
O632        O  0.14966724  0.32558013  0.53417807    -0.84400
C633        C  0.18669119  0.31728650  0.54942347     1.10800
O634        O  0.04873203  0.09620988  0.69978400    -0.97500
Zr635      Zr  0.05972229  0.06742718  0.64025385     1.88900
O636        O  0.04146800  0.32568899  0.57508517    -0.74100
O637        O  0.19746486  0.00785963  0.65468806    -0.53400
O638        O  0.08272843  0.02909677  0.69085904    -0.98100
O639        O  0.98125562  0.08079406  0.65021913    -0.55300
O640        O  0.02165749  0.01219936  0.63181196    -0.74600
C641        C  0.02065404  0.32274920  0.60591284     0.97700
O642        O  0.07824256  0.98735244  0.00047304    -0.63500
O643        O  0.02669161  0.16641317  0.50295721    -0.58300
O644        O  0.05070657  0.05411741  0.49019235    -0.94900
O645        O  0.00477159  0.09925350  0.50478446    -0.93400
O646        O  0.14484101  0.16251763  0.48063948    -0.93700
O647        O  0.17390318  0.09731384  0.46060867    -0.92500
C648        C  0.02001129  0.07684965  0.98190195     1.16500
H649        H  0.11687414  0.17666934  0.54747637     0.32500
H650        H  0.18674894  0.04714931  0.53107270     0.43300
H651        H  0.00780714  0.05943097  0.57366578     0.36900
H652        H  0.13600770  0.08874127  0.66946916     0.33400
H653        H  0.25574442  0.12268426  0.49097171     0.25100
H654        H  0.22907822  0.00964841  0.66228088     0.31100
H655        H  0.05471195  0.01946188  0.70134321     0.37000
H656        H  0.11532870  0.15406312  0.47209167     0.31400
H657        H  0.99824058  0.17766048  0.50989972     0.30300
H658        H  0.96941561  0.14430934  0.59941458     0.32000
H659        H  0.97141927  0.06411857  0.66972284     0.31000
H660        H  0.15329221  0.07683060  0.45950098     0.35000
H661        H  0.04548084  0.98610848  0.99747976     0.27700
H662        H  0.18914007  0.20138510  0.66454746     0.31900
H663        H  0.02920368  0.08030649  0.71439495     0.34800
H664        H  0.04897456  0.18577560  0.50403033     0.27400
H665        H  0.09008588  0.99434969  0.47792061     0.40300
H666        H  0.28075453  0.04770558  0.61676295     0.30300
H667        H  0.26056242  0.09662092  0.52439406     0.37900
H668        H  0.96568234  0.07243306  0.62778028     0.29800
H669        H  0.18037781  0.01487407  0.67683842     0.29900
H670        H  0.14491537  0.19291147  0.68623989     0.30100
C671        C  0.21773060  0.10671810  0.72863449     0.85600
C672        C  0.23478954  0.14080502  0.74632124    -0.54700
C673        C  0.23844172  0.13958855  0.78415753     0.08500
C674        C  0.22419170  0.10365593  0.80086196     0.19500
C675        C  0.24943816  0.07789701  0.74279378    -0.55400
C676        C  0.25250122  0.07607895  0.78066114     0.08600
C677        C  0.17369667  0.09897369  0.74845188    -0.54900
C678        C  0.17673840  0.09703664  0.78585683     0.09200
H679        H  0.24288294  0.16412406  0.73012012     0.13700
H680        H  0.22688651  0.10234789  0.83142085    -0.00600
H681        H  0.26655006  0.05965666  0.72463657     0.14000
H682        H  0.14216648  0.09624697  0.73405523     0.13800
Zr683      Zr  0.32098397  0.21424759  0.87007573     2.17500
O684        O  0.30345479  0.16449948  0.91071027    -0.52200
O685        O  0.28033382  0.16900972  0.83273925    -0.75400
O686        O  0.27515556  0.23015239  0.92443894    -0.82200
O687        O  0.42216283  0.17707679  0.82752892    -0.84000
O688        O  0.24562978  0.28522019  0.91798426    -0.79600
O689        O  0.38730971  0.17781461  0.88283665    -0.91200
O690        O  0.24301456  0.20075324  0.79043655    -0.77200
O691        O  0.26866830  0.25041679  0.83739009    -0.86700
O692        O  0.34356892  0.21237039  0.80674073    -0.86400
O693        O  0.33011732  0.27409863  0.89302555    -0.73100
O694        O  0.39634913  0.23723839  0.86832006    -0.85300
Zr695      Zr  0.37242333  0.32986804  0.79500018     2.26400
Zr696      Zr  0.27675069  0.30975403  0.86060568     2.06300
Zr697      Zr  0.41722209  0.23658032  0.80492645     2.10000
Zr698      Zr  0.29203004  0.24824696  0.77437710     1.78800
O699        O  0.49211307  0.23735308  0.83059154    -0.94100
O700        O  0.21843676  0.26630961  0.75345309    -0.41900
O701        O  0.36567398  0.27147041  0.77076721    -0.78500
O702        O  0.29734800  0.30679636  0.79697461    -0.97200
O703        O  0.35139973  0.33272101  0.85826016    -0.90500
O704        O  0.42582522  0.29539047  0.82743734    -0.93300
C705        C  0.25409839  0.17135429  0.80463277     1.00400
C706        C  0.41642230  0.16539486  0.86025352     1.13300
C707        C  0.25283415  0.25681417  0.93669668     1.04100
O708        O  0.19757710  0.30494185  0.84692288    -0.95500
O709        O  0.26083845  0.03178523  0.82745370    -0.91200
O710        O  0.31471822  0.03931627  0.78384697    -0.84400
C711        C  0.27800530  0.04793025  0.79929061     1.10800
O712        O  0.41274517  0.26587414  0.94931731    -0.97500
Zr713      Zr  0.40381005  0.29659151  0.89042188     1.88900
O714        O  0.42252355  0.03846296  0.82507590    -0.74100
O715        O  0.26584314  0.02352305  0.90475648    -0.53400
O716        O  0.38092806  0.99928324  0.94268373    -0.98100
O717        O  0.48231097  0.28366384  0.90119345    -0.55300
O718        O  0.44063550  0.01917213  0.88242754    -0.74600
C719        C  0.44208642  0.04192579  0.85637897     0.97700
O720        O  0.38703838  0.04464631  0.75165738    -0.63500
O721        O  0.44063332  0.19788166  0.75488916    -0.58300
O722        O  0.41095205  0.30990293  0.73948553    -0.94900
O723        O  0.45395992  0.26244426  0.75256554    -0.93400
O724        O  0.31514059  0.20450841  0.72918778    -0.93700
O725        O  0.28629995  0.27157208  0.71184258    -0.92500
C726        C  0.44007175  0.28658890  0.73092196     1.16500
H727        H  0.34426150  0.18870337  0.79688021     0.32500
H728        H  0.27650859  0.31873583  0.78110382     0.43300
H729        H  0.45574982  0.30418629  0.82354871     0.36900
H730        H  0.32667380  0.27609327  0.91920044     0.33400
H731        H  0.20559708  0.24517943  0.74130223     0.25100
H732        H  0.23451521  0.02105410  0.91298123     0.31100
H733        H  0.40837081  0.01146233  0.95109506     0.37000
H734        H  0.34427288  0.21324665  0.72003945     0.31400
H735        H  0.46557981  0.18392631  0.76500726     0.30300
H736        H  0.50081101  0.21220625  0.83207639     0.32000
H737        H  0.49115846  0.29925103  0.92188405     0.31000
H738        H  0.31292084  0.28687414  0.70886121     0.35000
H739        H  0.42052897  0.37897515  0.74977088     0.27700
H740        H  0.27063806  0.16414125  0.91342286     0.31900
H741        H  0.43024912  0.28187664  0.96540314     0.34800
H742        H  0.41594145  0.18066852  0.75183880     0.27400
H743        H  0.37714313  0.03617786  0.72707614     0.40300
H744        H  0.18701716  0.28427812  0.86134101     0.30300
H745        H  0.20082401  0.26900618  0.77638454     0.37900
H746        H  0.49833379  0.29357822  0.87961578     0.29800
H747        H  0.28379519  0.01678781  0.92655045     0.29900
H748        H  0.31506760  0.17108054  0.93536462     0.30100
C749        C  0.24521367  0.25821772  0.97822468     0.85600
C750        C  0.22774495  0.22428917  0.49624591    -0.54700
C751        C  0.22503979  0.22550631  0.53419057     0.08500
C752        C  0.24082561  0.26129037  0.55054735     0.19500
C753        C  0.21431363  0.28734373  0.49277131    -0.55400
C754        C  0.21236151  0.28926420  0.53069370     0.08600
C755        C  0.28961498  0.26527803  0.49700127    -0.54900
C756        C  0.28800263  0.26687761  0.53441124     0.09200
H757        H  0.21953626  0.20099093  0.98018357     0.13700
H758        H  0.23936718  0.26254012  0.58115462    -0.00600
H759        H  0.19644298  0.30528302  0.97525361     0.14000
H760        H  0.32060106  0.26880472  0.48196342     0.13800
C761        C  0.06381591  0.06563378  0.82119302    -0.22200
C762        C  0.05809077  0.08820613  0.85149240    -0.10300
C763        C  0.09243455  0.11274945  0.86001577     0.28600
C764        C  0.13124912  0.11426371  0.83934532    -0.22200
C765        C  0.13687692  0.09204067  0.80917773    -0.10300
C766        C  0.10299022  0.06750084  0.80014388     0.28600
F767        F  0.10820234  0.04481385  0.77153638    -0.20800
H768        H  0.03869239  0.04630454  0.81396090     0.17000
H769        H  0.15652357  0.13364629  0.84642323     0.17000
F770        F  0.08874967  0.13514823  0.88910749    -0.20800
C771        C  0.40575532  0.25593978  0.56871621    -0.22200
C772        C  0.40928364  0.28235215  0.59591827    -0.10300
C773        C  0.37417669  0.30710669  0.59840442     0.28600
C774        C  0.33411979  0.30146704  0.57931379    -0.22200
C775        C  0.32932714  0.27239103  0.55582867    -0.10300
C776        C  0.36615890  0.25059261  0.54945389     0.28600
F777        F  0.36338708  0.22320166  0.52539560    -0.20800
H778        H  0.43307945  0.23851813  0.56262551     0.17000
H779        H  0.30695437  0.31986184  0.58267063     0.17000
F780        F  0.37773199  0.33583649  0.62060246    -0.20800
C781        C  0.59112041  0.09051387  0.97742951    -0.22200
C782        C  0.63180045  0.10635298  0.96719191    -0.10300
C783        C  0.63193165  0.13132362  0.93866319     0.28600
C784        C  0.59301439  0.13800188  0.91883481    -0.22200
C785        C  0.55364855  0.11824353  0.92533598    -0.10300
C786        C  0.55231122  0.09672242  0.95717093     0.28600
F787        F  0.51395317  0.08075793  0.96819596    -0.20800
H788        H  0.58956235  0.07241593  0.00060198     0.17000
H789        H  0.59455073  0.15782906  0.89732945     0.17000
F790        F  0.66952549  0.14946039  0.92996471    -0.20800
C791        C  0.86908230  0.22714136  0.66925895    -0.22200
C792        C  0.90843919  0.24691168  0.67552769    -0.10300
C793        C  0.90999539  0.26830808  0.70732383     0.28600
C794        C  0.87116423  0.27474036  0.72749890    -0.22200
C795        C  0.83033864  0.25912333  0.71723534    -0.10300
C796        C  0.83015651  0.23403815  0.68892921     0.28600
F797        F  0.79251566  0.21598796  0.68027059    -0.20800
H798        H  0.86752547  0.20726346  0.64789374     0.17000
H799        H  0.87283508  0.29280530  0.75060761     0.17000
F800        F  0.94861634  0.28376797  0.71844012    -0.20800
C801        C  0.94422824  0.58363795  0.14526262     0.85600
C802        C  0.92534623  0.57573236  0.10659228    -0.54700
C803        C  0.95539921  0.57800115  0.07885954     0.08500
C804        C  0.00202054  0.58892686  0.09147588     0.19500
C805        C  0.98433246  0.55854150  0.14931049    -0.55400
C806        C  0.01451047  0.56128000  0.12085629     0.08600
C807        C  0.96492003  0.62075014  0.14059422    -0.54900
C808        C  0.99541753  0.62334556  0.11279152     0.09200
H809        H  0.89028818  0.57169100  0.10059896     0.13700
H810        H  0.02642811  0.59109461  0.06849569    -0.00600
H811        H  0.98582551  0.53788045  0.17010167     0.14000
H812        H  0.95573772  0.64342826  0.15711757     0.13800
C813        C  0.51798811  0.44862136  0.39497217     0.85600
C814        C  0.53600155  0.45676052  0.35607401    -0.54700
C815        C  0.50554815  0.45392873  0.32868334     0.08500
C816        C  0.45935939  0.44255341  0.34191078     0.19500
C817        C  0.47751186  0.47323364  0.39936301    -0.55400
C818        C  0.44689783  0.47011176  0.37129378     0.08600
C819        C  0.49788855  0.41124714  0.39073261    -0.54900
C820        C  0.46701173  0.40826078  0.36329423     0.09200
H821        H  0.57087215  0.46117124  0.34962508     0.13700
H822        H  0.43458282  0.44006889  0.31924995    -0.00600
H823        H  0.47615549  0.49405303  0.41989794     0.14000
H824        H  0.50777719  0.38869307  0.40726523     0.13800
Zr825      Zr  0.64169803  0.38159323  0.15383516     2.17500
O826        O  0.65693350  0.33091266  0.11433260    -0.52200
O827        O  0.68351871  0.33721132  0.19085789    -0.75400
O828        O  0.68787829  0.39689687  0.09921673    -0.82200
O829        O  0.53863480  0.34465394  0.19563754    -0.84000
O830        O  0.71609639  0.45283538  0.10395380    -0.79600
O831        O  0.57437293  0.34594532  0.14064430    -0.91200
O832        O  0.72092090  0.36986116  0.23250129    -0.77200
O833        O  0.69429924  0.41790191  0.18640513    -0.86700
O834        O  0.61890247  0.37956754  0.21719569    -0.86400
O835        O  0.63311970  0.44106580  0.13011760    -0.73100
O836        O  0.56673957  0.40442371  0.15589740    -0.85300
Zr837      Zr  0.59174292  0.49753729  0.22754732     2.26400
Zr838      Zr  0.68714713  0.47694467  0.16215526     2.06300
Zr839      Zr  0.54551873  0.40370800  0.21926529     2.10000
Zr840      Zr  0.67061363  0.41581546  0.24939468     1.78800
O841        O  0.46958304  0.40174505  0.19569652    -0.94100
O842        O  0.74310589  0.43604361  0.27121559    -0.41900
O843        O  0.59733966  0.43930745  0.25308697    -0.78500
O844        O  0.66633226  0.47429942  0.22596272    -0.97200
O845        O  0.61278687  0.49990586  0.16434568    -0.90500
O846        O  0.53800500  0.46245015  0.19593967    -0.93300
C847        C  0.71043135  0.34018406  0.21842844     1.00400
C848        C  0.54483370  0.33325431  0.16289998     1.13300
C849        C  0.70934243  0.42386831  0.08601686     1.04100
O850        O  0.76632825  0.46926309  0.17409171    -0.95500
O851        O  0.70465670  0.53298626  0.19468079    -0.91200
O852        O  0.65001982  0.54109021  0.23732336    -0.84400
C853        C  0.68722418  0.54956782  0.22225261     1.10800
O854        O  0.54522864  0.43364758  0.07452618    -0.97500
Zr855      Zr  0.55973708  0.46345373  0.13303634     1.88900
O856        O  0.54262733  0.53968368  0.19691777    -0.74100
O857        O  0.69843558  0.52636021  0.11988430    -0.53400
O858        O  0.58484399  0.49888744  0.08070626    -0.98100
O859        O  0.48066398  0.45072625  0.12412022    -0.55300
O860        O  0.52277589  0.51896431  0.14060405    -0.74600
C861        C  0.52226839  0.54241033  0.16590662     0.97700
O862        O  0.57874733  0.54560064  0.27095054    -0.63500
O863        O  0.52724953  0.36482483  0.27102794    -0.58300
O864        O  0.55050561  0.47795362  0.28195144    -0.94900
O865        O  0.50534465  0.43150081  0.26854832    -0.93400
O866        O  0.64859413  0.37042959  0.29369958    -0.93700
O867        O  0.67629329  0.43643479  0.31292908    -0.92500
C868        C  0.51992566  0.45539905  0.29025292     1.16500
H869        H  0.61823206  0.35579624  0.22691964     0.32500
H870        H  0.68720229  0.48649662  0.24166852     0.43300
H871        H  0.50828450  0.47129857  0.19983395     0.36900
H872        H  0.63612520  0.44268289  0.10377360     0.33400
H873        H  0.75681687  0.41501274  0.28271838     0.25100
H874        H  0.73053721  0.52586073  0.11364089     0.31100
H875        H  0.55828485  0.51222824  0.07269090     0.37000
H876        H  0.61929183  0.37818202  0.30309513     0.31400
H877        H  0.50128785  0.35072301  0.26268971     0.30300
H878        H  0.47110547  0.38742561  0.17290654     0.32000
H879        H  0.47087986  0.46755437  0.10483517     0.31000
H880        H  0.66740139  0.46155920  0.31188018     0.35000
H881        H  0.54601015  0.54760867  0.27283390     0.27700
H882        H  0.68978394  0.32919693  0.11299632     0.31900
H883        H  0.52717137  0.45014580  0.05956110     0.34800
H884        H  0.55200016  0.34770370  0.27230877     0.27400
H885        H  0.58850178  0.53681847  0.29542412     0.40300
H886        H  0.78142888  0.48030747  0.15263624     0.30300
H887        H  0.76064730  0.44016565  0.24843381     0.37900
H888        H  0.46567757  0.45903993  0.14678773     0.29800
H889        H  0.68304761  0.51931418  0.09686465     0.29900
H890        H  0.64745980  0.33790093  0.08917939     0.30100
C891        C  0.71645895  0.42455982  0.04434945     0.85600
C892        C  0.73375221  0.39056146  0.02709273    -0.54700
C893        C  0.73598735  0.39079314  0.48897452     0.08500
C894        C  0.72036872  0.42626954  0.47203895     0.19500
C895        C  0.74693559  0.45375621  0.02880119    -0.55400
C896        C  0.74910254  0.45460685  0.49126904     0.08600
C897        C  0.67178664  0.43059211  0.52567617    -0.54900
C898        C  0.67319544  0.43195129  0.48817242     0.09200
H899        H  0.74340637  0.36795397  0.04369803     0.13700
H900        H  0.72196631  0.42709289  0.44141946    -0.00600
H901        H  0.76458859  0.47252327  0.04619590     0.14000
H902        H  0.64107610  0.43493912  0.04077284     0.13800
Zr903      Zr  0.82042099  0.65110666  0.40326079     2.17500
O904        O  0.80519383  0.70133481  0.36274012    -0.52200
O905        O  0.77942660  0.36209397  0.44098242    -0.75400
O906        O  0.77373360  0.63631160  0.34895143    -0.82200
O907        O  0.93060002  0.35060232  0.44119725    -0.84000
O908        O  0.74553069  0.58038992  0.35393463    -0.79600
O909        O  0.88654480  0.35523923  0.39042790    -0.91200
O910        O  0.74248855  0.32972194  0.48332909    -0.77200
O911        O  0.76782008  0.61459991  0.43584556    -0.86700
O912        O  0.84395260  0.65231130  0.46623244    -0.86400
O913        O  0.82848731  0.59157561  0.37959131    -0.73100
O914        O  0.89487499  0.62709601  0.40465438    -0.85300
Zr915      Zr  0.87020473  0.53424674  0.47719806     2.26400
Zr916      Zr  0.77467228  0.55550098  0.41171778     2.06300
Zr917      Zr  0.91680612  0.62715656  0.46782328     2.10000
Zr918      Zr  0.79199075  0.61626193  0.49870174     1.78800
O919        O  0.99335928  0.62617854  0.44573706    -0.94100
O920        O  0.71875904  0.59773992  0.52063011    -0.41900
O921        O  0.86490732  0.59231802  0.50217018    -0.78500
O922        O  0.79567076  0.55781406  0.47543330    -0.97200
O923        O  0.84852046  0.53176884  0.41402245    -0.90500
O924        O  0.92385027  0.56862403  0.44456782    -0.93300
C925        C  0.75282498  0.35927988  0.46885939     1.00400
C926        C  0.91957717  0.36510298  0.41074875     1.13300
C927        C  0.75226220  0.60935885  0.33591245     1.04100
O928        O  0.69499127  0.56045574  0.42257884    -0.95500
O929        O  0.75759617  0.49933247  0.44452585    -0.91200
O930        O  0.81212591  0.49088483  0.48722726    -0.84400
C931        C  0.77491858  0.48265483  0.47217754     1.10800
O932        O  0.91419144  0.59746050  0.32277652    -0.97500
Zr933      Zr  0.90113257  0.56794730  0.38183185     1.88900
O934        O  0.92032467  0.49265971  0.44744759    -0.74100
O935        O  0.76413794  0.50756444  0.36775850    -0.53400
O936        O  0.87386328  0.53227635  0.33054830    -0.98100
O937        O  0.98011606  0.57943839  0.37080189    -0.55300
O938        O  0.93681083  0.51187524  0.38968341    -0.74600
C939        C  0.93925909  0.48936486  0.41592361     0.97700
O940        O  0.88572784  0.48539425  0.01923449    -0.63500
O941        O  0.93161178  0.66765814  0.01863924    -0.58300
O942        O  0.91000624  0.55373585  0.03228388    -0.94900
O943        O  0.95569361  0.59981480  0.01849198    -0.93400
O944        O  0.81779917  0.66095492  0.04241569    -0.93700
O945        O  0.78687476  0.59457987  0.06206042    -0.92500
C946        C  0.94074833  0.57621583  0.04048663     1.16500
H947        H  0.84558695  0.34259896  0.47590236     0.32500
H948        H  0.77470803  0.54570547  0.49120703     0.43300
H949        H  0.95357270  0.55971893  0.44816018     0.36900
H950        H  0.82535581  0.59022212  0.35335782     0.33400
H951        H  0.70663409  0.61856279  0.53359600     0.25100
H952        H  0.73235623  0.50872817  0.36057931     0.31100
H953        H  0.90002916  0.51880210  0.32195777     0.37000
H954        H  0.84596861  0.31663378  0.05377810     0.31400
H955        H  0.96192247  0.67711650  0.01393728     0.30300
H956        H  0.99291743  0.63909613  0.42194415     0.32000
H957        H  0.98849899  0.56304009  0.35074220     0.31000
H958        H  0.80915385  0.57547833  0.06372735     0.35000
H959        H  0.91834336  0.48575997  0.02291908     0.27700
H960        H  0.77263775  0.36967488  0.36113700     0.31900
H961        H  0.92956725  0.58015035  0.30685412     0.34800
H962        H  0.91374528  0.35537467  0.01313140     0.27400
H963        H  0.87306310  0.49248961  0.04336080     0.40300
H964        H  0.68099453  0.54846607  0.40121753     0.30300
H965        H  0.70047828  0.59562697  0.49796737     0.37900
H966        H  0.99571171  0.57007990  0.39277370     0.29800
H967        H  0.78065450  0.51508975  0.34540980     0.29900
H968        H  0.81519611  0.69428183  0.33777594     0.30100
C969        C  0.74541981  0.60844501  0.29428726     0.85600
C970        C  0.72894874  0.64249999  0.27653857    -0.54700
C971        C  0.72658604  0.64165030  0.23862952     0.08500
C972        C  0.74196109  0.60607157  0.22187158     0.19500
C973        C  0.71451454  0.57941194  0.27906190    -0.55400
C974        C  0.71291219  0.57780585  0.24116323     0.08600
C975        C  0.79023406  0.60169341  0.27567355    -0.54900
C976        C  0.78902874  0.60031911  0.23819595     0.09200
H977        H  0.72001699  0.66544243  0.29276890     0.13700
H978        H  0.74055690  0.60524289  0.19124851    -0.00600
H979        H  0.69658326  0.56093678  0.29669038     0.14000
H980        H  0.82079019  0.59761353  0.29102329     0.13800
C981        C  0.44556075  0.61414065  0.12582628     0.85600
C982        C  0.42569153  0.62068143  0.16431555    -0.54700
C983        C  0.45545569  0.61872775  0.19236061     0.08500
C984        C  0.50252875  0.60919535  0.18020715     0.19500
C985        C  0.48495488  0.64053712  0.12298806    -0.55400
C986        C  0.51473199  0.63782987  0.15172972     0.08600
C987        C  0.46750855  0.57749406  0.12990150    -0.54900
C988        C  0.49726464  0.57503091  0.15812942     0.09200
H989        H  0.39043408  0.62463205  0.16945132     0.13700
H990        H  0.52647192  0.60719359  0.20350709    -0.00600
H991        H  0.48675888  0.32793361  0.10235764     0.14000
H992        H  0.45937233  0.55459271  0.11331800     0.13800
C993        C  0.01869125  0.41934648  0.37804245     0.85600
C994        C  0.03597044  0.41017237  0.41658379    -0.54700
C995        C  0.00532026  0.41238446  0.44378630     0.08500
C996        C  0.95893094  0.42271647  0.43017305     0.19500
C997        C  0.97940669  0.39307958  0.37253092    -0.55400
C998        C  0.94796245  0.39508914  0.40024817     0.08600
C999        C  0.99613760  0.45543145  0.38147760    -0.54900
C1000       C  0.96534524  0.45733302  0.40892009     0.09200
H1001       H  0.07068987  0.40410646  0.42216056     0.14500
H1002       H  0.93371842  0.42419397  0.45258289    -0.00600
H1003       H  0.97901217  0.37221992  0.35206529     0.14000
H1004       H  0.00424438  0.47769978  0.36366264     0.13800
Zr1005     Zr  0.14120916  0.48441377  0.11996006     2.17500
O1006       O  0.15689558  0.53424418  0.16079512    -0.52200
O1007       O  0.18281223  0.52963790  0.08276208    -0.75400
O1008       O  0.18695417  0.46875019  0.17470489    -0.82200
O1009       O  0.03655796  0.51962099  0.07819295    -0.84000
O1010       O  0.21716051  0.41394845  0.16803851    -0.79600
O1011       O  0.07454759  0.52068705  0.13227223    -0.91200
O1012       O  0.22005933  0.49776018  0.04074188    -0.77200
O1013       O  0.19385873  0.44900465  0.08693748    -0.86700
O1014       O  0.11804050  0.48642618  0.05676864    -0.86400
O1015       O  0.13330612  0.42434099  0.14294554    -0.73100
O1016       O  0.06641541  0.46025817  0.11780085    -0.85300
Zr1017     Zr  0.09157883  0.36819926  0.04464660     2.26400
Zr1018     Zr  0.18716691  0.38944154  0.11020441     2.06300
Zr1019     Zr  0.04489517  0.46096326  0.05443599     2.10000
Zr1020     Zr  0.16990193  0.45130817  0.02399642     1.78800
O1021       O  0.96876920  0.46092841  0.07773405    -0.94100
O1022       O  0.24338427  0.43426843  0.00199752    -0.41900
O1023       O  0.09688204  0.42673120  0.02004968    -0.78500
O1024       O  0.16603616  0.39243889  0.04652452    -0.97200
O1025       O  0.11309396  0.36537608  0.10776428    -0.90500
O1026       O  0.03793929  0.40201616  0.07721401    -0.93300
C1027       C  0.20945784  0.52720996  0.05491013     1.00400
C1028       C  0.04417031  0.53223660  0.11023767     1.13300
C1029       C  0.20951985  0.44212646  0.18694241     1.04100
O1030       O  0.26600024  0.39510530  0.09554170    -0.95500
O1031       O  0.20421885  0.33349985  0.07763613    -0.91200
O1032       O  0.14978450  0.65905839  0.03418395    -0.84400
C1033       C  0.18649374  0.65047213  0.04977054     1.10800
O1034       O  0.04915349  0.43028173  0.19911196    -0.97500
Zr1035     Zr  0.06022837  0.40078298  0.13997639     1.88900
O1036       O  0.04148732  0.65892838  0.07443710    -0.74100
O1037       O  0.19859902  0.34127458  0.15386670    -0.53400
O1038       O  0.08292920  0.36240116  0.19067102    -0.98100
O1039       O  0.98162426  0.41364439  0.14979492    -0.55300
O1040       O  0.02241723  0.34548997  0.13117928    -0.74600
C1041       C  0.02096272  0.65592295  0.10538240     0.97700
O1042       O  0.07740332  0.32018984  0.50107079    -0.63500
O1043       O  0.02670442  0.49993927  0.00296615    -0.58300
O1044       O  0.05066776  0.38786060  0.99011148    -0.94900
O1045       O  0.00495904  0.43317498  0.00455530    -0.93400
O1046       O  0.14488728  0.49605731  0.98035360    -0.93700
O1047       O  0.17505240  0.43096127  0.96039628    -0.92500
C1048       C  0.01936937  0.40999805  0.48232767     1.16500
H1049       H  0.11704573  0.51029131  0.04730814     0.32500
H1050       H  0.18691811  0.38059053  0.03069403     0.43300
H1051       H  0.00820815  0.39288381  0.07343817     0.36900
H1052       H  0.13643198  0.42221132  0.16919581     0.33400
H1053       H  0.25608612  0.45585315  0.99052373     0.25100
H1054       H  0.22998711  0.34363262  0.16192402     0.31100
H1055       H  0.05483210  0.35293946  0.20118330     0.37000
H1056       H  0.11510846  0.48775773  0.97228466     0.31400
H1057       H  0.99811654  0.51097687  0.00988861     0.30300
H1058       H  0.96807386  0.47942269  0.09699687     0.32000
H1059       H  0.97213454  0.39733060  0.16974237     0.31000
H1060       H  0.15009105  0.41397109  0.95761436     0.35000
H1061       H  0.04466264  0.31942358  0.49778752     0.27700
H1062       H  0.18971260  0.53540295  0.16331717     0.31900
H1063       H  0.03055277  0.41413801  0.21425122     0.34800
H1064       H  0.04879396  0.51943289  0.00416679     0.27400
H1065       H  0.09041215  0.32950229  0.97646312     0.40300
H1066       H  0.28099780  0.37909389  0.11317396     0.30300
H1067       H  0.26117599  0.43077990  0.02472245     0.37900
H1068       H  0.96607748  0.40462826  0.12761996     0.29800
H1069       H  0.18082025  0.34771481  0.17583338     0.29900
H1070       H  0.14578808  0.52713548  0.18548095     0.30100
C1071       C  0.21781668  0.44057667  0.22848767     0.85600
C1072       C  0.23488054  0.47469447  0.24613082    -0.54700
C1073       C  0.23854906  0.47348984  0.28396864     0.08500
C1074       C  0.22421582  0.43759255  0.30072839     0.19500
C1075       C  0.24947662  0.41174851  0.24273442    -0.55400
C1076       C  0.25250716  0.40993132  0.28060912     0.08600
C1077       C  0.17372168  0.43294904  0.24831512    -0.54900
C1078       C  0.17670622  0.43102803  0.28574459     0.09200
H1079       H  0.24288846  0.49801973  0.22991498     0.13700
H1080       H  0.22693358  0.43633407  0.33128444    -0.00600
H1081       H  0.26657822  0.39348132  0.22460392     0.14000
H1082       H  0.14221689  0.43025323  0.23387927     0.13800
Zr1083     Zr  0.32145511  0.54781180  0.36992486     2.17500
O1084       O  0.30502221  0.49809842  0.41088540    -0.52200
O1085       O  0.28075327  0.50275023  0.33241662    -0.75400
O1086       O  0.27545543  0.56354256  0.42432728    -0.82200
O1087       O  0.42520298  0.51192234  0.32857445    -0.84000
O1088       O  0.24491508  0.61817633  0.41741963    -0.79600
O1089       O  0.38717158  0.51083867  0.38259228    -0.91200
O1090       O  0.24292364  0.53464962  0.29062261    -0.77200
O1091       O  0.26896275  0.58355919  0.33709314    -0.86700
O1092       O  0.34416343  0.54602281  0.30661310    -0.86400
O1093       O  0.33019346  0.60762447  0.39295355    -0.73100
O1094       O  0.39659946  0.57122668  0.36803432    -0.85300
Zr1095     Zr  0.37228805  0.66347305  0.29453231     2.26400
Zr1096     Zr  0.27660187  0.64291989  0.36033421     2.06300
Zr1097     Zr  0.41758273  0.57061286  0.30462932     2.10000
Zr1098     Zr  0.29237715  0.58158474  0.27405628     1.78800
O1099       O  0.49315200  0.57232544  0.32885474    -0.94100
O1100       O  0.21919512  0.60103160  0.25351087    -0.41900
O1101       O  0.36589124  0.60514514  0.27011920    -0.78500
O1102       O  0.29739263  0.64012489  0.29665360    -0.97200
O1103       O  0.35104678  0.66638954  0.35780205    -0.90500
O1104       O  0.42579945  0.62939292  0.32719093    -0.93300
C1105       C  0.25425094  0.50519179  0.30449910     1.00400
C1106       C  0.41741983  0.49921036  0.36058834     1.13300
C1107       C  0.25271006  0.59005890  0.43641750     1.04100
O1108       O  0.19761512  0.63797640  0.34598009    -0.95500
O1109       O  0.26079498  0.36555798  0.32749580    -0.91200
O1110       O  0.31459202  0.37293005  0.28377392    -0.84400
C1111       C  0.27794783  0.38167127  0.29927592     1.10800
O1112       O  0.41448301  0.60063839  0.44925474    -0.97500
Zr1113     Zr  0.40364210  0.63061497  0.39014650     1.88900
O1114       O  0.42249518  0.37189691  0.32476649    -0.74100
O1115       O  0.26577737  0.35622133  0.40561916    -0.53400
O1116       O  0.37918726  0.33330142  0.44156134    -0.98100
O1117       O  0.48250619  0.61901251  0.40098426    -0.55300
O1118       O  0.44054230  0.35268879  0.38214567    -0.74600
C1119       C  0.44207114  0.37539828  0.35606793     0.97700
O1120       O  0.38534475  0.37839054  0.25152007    -0.63500
O1121       O  0.43947537  0.53067849  0.25514449    -0.58300
O1122       O  0.41200273  0.64392817  0.23933270    -0.94900
O1123       O  0.45450408  0.59613343  0.25219961    -0.93400
O1124       O  0.31489916  0.53718894  0.22937809    -0.93700
O1125       O  0.28577181  0.60228938  0.21057605    -0.92500
C1126       C  0.44094035  0.62047878  0.23067500     1.16500
H1127       H  0.34511881  0.52230829  0.29688308     0.32500
H1128       H  0.27652035  0.65205337  0.28080557     0.43300
H1129       H  0.45567016  0.63830007  0.32331568     0.36900
H1130       H  0.32663213  0.60962482  0.41911929     0.33400
H1131       H  0.20623230  0.58046178  0.24043576     0.25100
H1132       H  0.23375661  0.35501508  0.41210906     0.31100
H1133       H  0.40630186  0.34581057  0.45017287     0.37000
H1134       H  0.34621007  0.54323187  0.22342740     0.31400
H1135       H  0.46742738  0.51965492  0.26372684     0.30300
H1136       H  0.49176635  0.55851902  0.35208042     0.32000
H1137       H  0.49084416  0.63437438  0.42200155     0.31000
H1138       H  0.31017609  0.61978004  0.20764233     0.35000
H1139       H  0.41778895  0.71369194  0.24867431     0.27700
H1140       H  0.27220917  0.49729113  0.41353616     0.31900
H1141       H  0.43004220  0.61768439  0.46553591     0.34800
H1142       H  0.41718083  0.51129291  0.25549580     0.27400
H1143       H  0.37629610  0.36960159  0.22684218     0.40300
H1144       H  0.18947729  0.61326246  0.35210090     0.30300
H1145       H  0.20141169  0.60293330  0.27643939     0.37900
H1146       H  0.49837942  0.62956187  0.37965184     0.29800
H1147       H  0.28146404  0.34807254  0.42808532     0.29900
H1148       H  0.31640960  0.50502358  0.43550956     0.30100
C1149       C  0.24501806  0.59168333  0.47799288     0.85600
C1150       C  0.22852305  0.55770079  0.99644694    -0.54700
C1151       C  0.22583330  0.55889498  0.03437606     0.08500
C1152       C  0.24121238  0.59477630  0.05075906     0.19500
C1153       C  0.21419208  0.62062480  0.99305949    -0.55400
C1154       C  0.21231258  0.62252454  0.03100168     0.08600
C1155       C  0.28980440  0.59922184  0.99710478    -0.54900
C1156       C  0.28826653  0.60076459  0.03452807     0.09200
H1157       H  0.21854198  0.53469179  0.48010795     0.13700
H1158       H  0.23983122  0.59597458  0.08137257    -0.00600
H1159       H  0.19677285  0.63912801  0.47491945     0.14000
H1160       H  0.32071061  0.60298022  0.98201876     0.13800
C1161       C  0.06391820  0.39908510  0.32135981    -0.22200
C1162       C  0.05835742  0.42131676  0.35197605    -0.10300
C1163       C  0.09278273  0.44572345  0.36063186     0.28600
C1164       C  0.13147775  0.44749281  0.33978245    -0.22200
C1165       C  0.13684922  0.42578558  0.30915302    -0.10300
C1166       C  0.10281745  0.40139839  0.29994570     0.28600
F1167       F  0.10747451  0.37942721  0.27066564    -0.20800
H1168       H  0.03870710  0.37988065  0.31396607     0.17000
H1169       H  0.15679113  0.46677941  0.34703358     0.17000
F1170       F  0.08917057  0.46788943  0.38991918    -0.20800
C1171       C  0.40624635  0.59030899  0.06830207    -0.22200
C1172       C  0.40966088  0.61652891  0.09570844    -0.10300
C1173       C  0.37431597  0.64102695  0.09858927     0.28600
C1174       C  0.33423448  0.63532001  0.07956929    -0.22200
C1175       C  0.32959863  0.60637536  0.05588056    -0.10300
C1176       C  0.36653994  0.58475685  0.04928898     0.28600
F1177       F  0.36373942  0.55728174  0.02533345    -0.20800
H1178       H  0.43371408  0.57309380  0.06198655     0.17000
H1179       H  0.30691459  0.65353372  0.08318936     0.17000
F1180       F  0.37767530  0.66954927  0.12110256    -0.20800
C1181       C  0.59164094  0.42357363  0.47679069    -0.22200
C1182       C  0.63234824  0.43934783  0.46656973    -0.10300
C1183       C  0.63263319  0.46416294  0.43788585     0.28600
C1184       C  0.59372586  0.47096055  0.41810853    -0.22200
C1185       C  0.55423937  0.45139879  0.42475417    -0.10300
C1186       C  0.55284343  0.42992567  0.45660130     0.28600
F1187       F  0.51438773  0.41420048  0.46774493    -0.20800
H1188       H  0.59001732  0.40550062  0.49998003     0.17000
H1189       H  0.59534842  0.49078149  0.39660351     0.17000
F1190       F  0.67034848  0.48204403  0.42898634    -0.20800
C1191       C  0.86923287  0.56098031  0.16922472    -0.22200
C1192       C  0.90835350  0.58107389  0.17537268    -0.10300
C1193       C  0.90945451  0.60305079  0.20676974     0.28600
C1194       C  0.87053061  0.60928472  0.22684679    -0.22200
C1195       C  0.83003621  0.59306340  0.21681599    -0.10300
C1196       C  0.83016296  0.56781516  0.18868122     0.28600
F1197       F  0.79271488  0.54950457  0.18001992    -0.20800
H1198       H  0.86797992  0.54084854  0.14810710     0.17000
H1199       H  0.87185649  0.62759019  0.24976739     0.17000
F1200       F  0.94773850  0.61911231  0.21774528    -0.20800
C1201       C  0.94436496  0.58333046  0.64552757     0.85600
C1202       C  0.92521595  0.57594791  0.60683200    -0.54700
C1203       C  0.95507529  0.57860092  0.57898510     0.08500
C1204       C  0.00180175  0.58925555  0.59152749     0.19500
C1205       C  0.98445676  0.55818357  0.64903945    -0.55400
C1206       C  0.01442241  0.56125359  0.62048312     0.08600
C1207       C  0.96513369  0.62049601  0.64130743    -0.54900
C1208       C  0.99543322  0.62340540  0.61335650     0.09200
H1209       H  0.89013991  0.57182717  0.60096534     0.13700
H1210       H  0.02605341  0.59164121  0.56845540    -0.00600
H1211       H  0.98616454  0.53733362  0.66961004     0.14000
H1212       H  0.95617898  0.64293883  0.65826811     0.13800
C1213       C  0.51791520  0.44902717  0.89482787     0.85600
C1214       C  0.53575588  0.45691830  0.85582236    -0.54700
C1215       C  0.50525446  0.45365618  0.82850460     0.08500
C1216       C  0.45920204  0.44220864  0.84193201     0.19500
C1217       C  0.47724946  0.47350024  0.89905221    -0.55400
C1218       C  0.44662901  0.47004795  0.87101825     0.08600
C1219       C  0.49810489  0.41150684  0.89099819    -0.54900
C1220       C  0.46721449  0.40810428  0.86364103     0.09200
H1221       H  0.57054993  0.46151181  0.84925847     0.13700
H1222       H  0.43441682  0.43941282  0.81931976    -0.00600
H1223       H  0.47570906  0.49440098  0.91948348     0.14000
H1224       H  0.50822918  0.38917377  0.90776875     0.13800
Zr1225     Zr  0.64120429  0.38097268  0.65383666     2.17500
O1226       O  0.65633508  0.32991804  0.61486665    -0.52200
O1227       O  0.68284312  0.33644946  0.69080610    -0.75400
O1228       O  0.68707714  0.39613993  0.59902276    -0.82200
O1229       O  0.53915316  0.34404002  0.69623842    -0.84000
O1230       O  0.71694658  0.45148132  0.60459916    -0.79600
O1231       O  0.57327195  0.34597964  0.64067595    -0.91200
O1232       O  0.72009780  0.36906469  0.73259861    -0.77200
O1233       O  0.69399021  0.41681396  0.68678478    -0.86700
O1234       O  0.61836781  0.37916226  0.71717778    -0.86400
O1235       O  0.63359224  0.44060436  0.63030966    -0.73100
O1236       O  0.56647635  0.40427432  0.65558301    -0.85300
Zr1237     Zr  0.59188260  0.49710987  0.72759000     2.26400
Zr1238     Zr  0.68777128  0.47593835  0.66270516     2.06300
Zr1239     Zr  0.54513927  0.40349261  0.71893918     2.10000
Zr1240     Zr  0.67009160  0.41511430  0.74972029     1.78800
O1241       O  0.46961787  0.40113742  0.69453588    -0.94100
O1242       O  0.74272222  0.43574846  0.77086309    -0.41900
O1243       O  0.59693101  0.43884725  0.75305413    -0.78500
O1244       O  0.66637731  0.47366111  0.72645034    -0.97200
O1245       O  0.61366473  0.49943414  0.66457093    -0.90500
O1246       O  0.53819713  0.46229758  0.69558534    -0.93300
C1247       C  0.70967358  0.33941430  0.71844147     1.00400
C1248       C  0.54435901  0.33296863  0.66327705     1.13300
C1249       C  0.70933188  0.42288595  0.58620664     1.04100
O1250       O  0.76679879  0.46789573  0.67512177    -0.95500
O1251       O  0.70537103  0.53200824  0.69519783    -0.91200
O1252       O  0.65015014  0.54076011  0.73718270    -0.84400
C1253       C  0.68762271  0.54895822  0.72239215     1.10800
O1254       O  0.54729502  0.43381845  0.57407542    -0.97500
Zr1255     Zr  0.56052916  0.46347207  0.63283138     1.88900
O1256       O  0.54225449  0.53911842  0.69747837    -0.74100
O1257       O  0.69932670  0.52478863  0.61989326    -0.53400
O1258       O  0.58626552  0.49975943  0.58126180    -0.98100
O1259       O  0.48164890  0.45119225  0.62250944    -0.55300
O1260       O  0.52347648  0.51886032  0.64074191    -0.74600
C1261       C  0.52232835  0.54200490  0.66630060     0.97700
O1262       O  0.57965146  0.54532221  0.77095222    -0.63500
O1263       O  0.52670805  0.36473154  0.77071484    -0.58300
O1264       O  0.55012305  0.47755203  0.78170923    -0.94900
O1265       O  0.50492431  0.43109178  0.76834228    -0.93400
O1266       O  0.64898436  0.36994077  0.79455358    -0.93700
O1267       O  0.67457363  0.43500550  0.81358176    -0.92500
C1268       C  0.51952886  0.45501097  0.79003164     1.16500
H1269       H  0.61759768  0.35541173  0.72696461     0.32500
H1270       H  0.68707692  0.48588025  0.74228874     0.43300
H1271       H  0.50847327  0.47120794  0.69929751     0.36900
H1272       H  0.63669028  0.44248217  0.60399443     0.33400
H1273       H  0.75744441  0.41451119  0.78098665     0.25100
H1274       H  0.73104485  0.52328976  0.61260177     0.31100
H1275       H  0.56081734  0.51511891  0.57491704     0.37000
H1276       H  0.61910749  0.37699430  0.80329432     0.31400
H1277       H  0.49997135  0.35137403  0.76274078     0.30300
H1278       H  0.47142787  0.38614872  0.67223398     0.32000
H1279       H  0.47183174  0.46961864  0.60490725     0.31000
H1280       H  0.66169392  0.45901502  0.81328206     0.35000
H1281       H  0.54696398  0.54713188  0.77347951     0.27700
H1282       H  0.68910308  0.32917388  0.61196426     0.31900
H1283       H  0.52937413  0.45035818  0.55904660     0.34800
H1284       H  0.55076305  0.34696440  0.77140415     0.27400
H1285       H  0.59017197  0.53662702  0.79524690     0.40300
H1286       H  0.78215022  0.47832575  0.65345935     0.30300
H1287       H  0.75937002  0.44123894  0.74793121     0.37900
H1288       H  0.46654623  0.45735262  0.64587467     0.29800
H1289       H  0.68251874  0.51802983  0.59746771     0.29900
H1290       H  0.64479431  0.33613749  0.59009396     0.30100
C1291       C  0.71650563  0.42395034  0.54451233     0.85600
C1292       C  0.73338276  0.38995111  0.52691471    -0.54700
C1293       C  0.73625059  0.39105975  0.98913383     0.08500
C1294       C  0.72026316  0.42629714  0.97186901     0.19500
C1295       C  0.74729736  0.45310101  0.52920707    -0.55400
C1296       C  0.74878041  0.45492429  0.99087679     0.08600
C1297       C  0.67165401  0.43071856  0.02548436    -0.54900
C1298       C  0.67301394  0.43186884  0.98797616     0.09200
H1299       H  0.74260149  0.36708096  0.54327738     0.13700
H1300       H  0.72186307  0.42689414  0.94124380    -0.00600
H1301       H  0.76506085  0.47165707  0.54676924     0.14000
H1302       H  0.64119141  0.43476957  0.54095703     0.13800
Zr1303     Zr  0.82078902  0.65087522  0.90313202     2.17500
O1304       O  0.80499350  0.70098919  0.86261116    -0.52200
O1305       O  0.77928156  0.36192362  0.94109285    -0.75400
O1306       O  0.77442030  0.63613427  0.84866754    -0.82200
O1307       O  0.93099903  0.35035122  0.94101302    -0.84000
O1308       O  0.74498199  0.58067647  0.85413179    -0.79600
O1309       O  0.88650671  0.35529487  0.89049803    -0.91200
O1310       O  0.74364089  0.33008416  0.98474291    -0.77200
O1311       O  0.76820567  0.61461680  0.93595340    -0.86700
O1312       O  0.84438304  0.65211532  0.96607991    -0.86400
O1313       O  0.82862465  0.59139272  0.87928847    -0.73100
O1314       O  0.89526522  0.62697282  0.90463575    -0.85300
Zr1315     Zr  0.87044003  0.53406497  0.97687788     2.26400
Zr1316     Zr  0.77477144  0.55561089  0.91161903     2.06300
Zr1317     Zr  0.91719439  0.62696097  0.96784419     2.10000
Zr1318     Zr  0.79257873  0.61615817  0.99877705     1.78800
O1319       O  0.99413784  0.62605595  0.94673596    -0.94100
O1320       O  0.71920221  0.59744776  0.02015913    -0.41900
O1321       O  0.86540256  0.59201641  0.00219105    -0.78500
O1322       O  0.79599250  0.55775572  0.97536885    -0.97200
O1323       O  0.84863130  0.53184458  0.91371831    -0.90500
O1324       O  0.92409843  0.56852129  0.94428258    -0.93300
C1325       C  0.75329190  0.35938907  0.96941851     1.00400
C1326       C  0.91976218  0.36500758  0.91068379     1.13300
C1327       C  0.75233438  0.60940145  0.83586609     1.04100
O1328       O  0.69503056  0.56048637  0.92235343    -0.95500
O1329       O  0.75726290  0.49955820  0.94416203    -0.91200
O1330       O  0.81202393  0.49087834  0.98659198    -0.84400
C1331       C  0.77467883  0.48279691  0.97167383     1.10800
O1332       O  0.91384425  0.59823722  0.82281037    -0.97500
Zr1333     Zr  0.90136613  0.56793446  0.88154601     1.88900
O1334       O  0.92032812  0.49243423  0.94722059    -0.74100
O1335       O  0.76483784  0.50757299  0.86770418    -0.53400
O1336       O  0.87498012  0.53194158  0.83016683    -0.98100
O1337       O  0.98017208  0.57976407  0.87013117    -0.55300
O1338       O  0.93731732  0.51197285  0.88967756    -0.74600
C1339       C  0.93949384  0.48930975  0.91580856     0.97700
O1340       O  0.88585319  0.48611694  0.52013362    -0.63500
O1341       O  0.93255312  0.66764125  0.51850527    -0.58300
O1342       O  0.90933279  0.55457253  0.53254977    -0.94900
O1343       O  0.95555073  0.60018952  0.51844419    -0.93400
O1344       O  0.81753529  0.66052159  0.54278737    -0.93700
O1345       O  0.78623210  0.59325545  0.56141160    -0.92500
C1346       C  0.94031191  0.57687519  0.54062710     1.16500
H1347       H  0.84585271  0.34247950  0.97581170     0.32500
H1348       H  0.77505713  0.54568256  0.99119087     0.43300
H1349       H  0.95382921  0.55960079  0.94781174     0.36900
H1350       H  0.82535292  0.58985122  0.85307684     0.33400
H1351       H  0.70731897  0.61796512  0.03379881     0.25100
H1352       H  0.73332674  0.50905231  0.85981308     0.31100
H1353       H  0.90164648  0.51937427  0.82112825     0.37000
H1354       H  0.84431914  0.31822786  0.55340585     0.31400
H1355       H  0.96357887  0.67573120  0.51429234     0.30300
H1356       H  0.99372957  0.63760861  0.92219126     0.32000
H1357       H  0.98851569  0.56337333  0.85005372     0.31000
H1358       H  0.80417741  0.57140024  0.56122695     0.35000
H1359       H  0.91853872  0.48644052  0.52339856     0.27700
H1360       H  0.77196663  0.36914270  0.86097265     0.31900
H1361       H  0.92896107  0.58113363  0.80648549     0.34800
H1362       H  0.91304370  0.35555538  0.51315836     0.27400
H1363       H  0.87365708  0.49357243  0.54430410     0.40300
H1364       H  0.68104522  0.55073761  0.89977639     0.30300
H1365       H  0.70088709  0.59616635  0.99744790     0.37900
H1366       H  0.99595324  0.57050328  0.89205831     0.29800
H1367       H  0.78219553  0.51485437  0.84570994     0.29900
H1368       H  0.81519630  0.69409047  0.83765392     0.30100
C1369       C  0.74537516  0.60835349  0.79427554     0.85600
C1370       C  0.72850579  0.64224451  0.77652343    -0.54700
C1371       C  0.72620063  0.64134178  0.73863803     0.08500
C1372       C  0.74195041  0.60581812  0.72187726     0.19500
C1373       C  0.71477261  0.57907298  0.77911209    -0.55400
C1374       C  0.71317560  0.57737018  0.74121885     0.08600
C1375       C  0.79025833  0.60189082  0.77566103    -0.54900
C1376       C  0.78912179  0.60036297  0.73820094     0.09200
H1377       H  0.71936807  0.66515478  0.79272259     0.13700
H1378       H  0.74053866  0.60493883  0.69125570    -0.00600
H1379       H  0.69700704  0.56053008  0.79677630     0.14000
H1380       H  0.82081396  0.59796004  0.79103995     0.13800
C1381       C  0.44530843  0.61348810  0.62630361     0.85600
C1382       C  0.42572569  0.62019267  0.66485821    -0.54700
C1383       C  0.45568329  0.61824963  0.69277933     0.08500
C1384       C  0.50264705  0.60869275  0.68047882     0.19500
C1385       C  0.48477074  0.63982992  0.62322632    -0.55400
C1386       C  0.51473807  0.63722083  0.65186488     0.08600
C1387       C  0.46718607  0.57684166  0.63045302    -0.54900
C1388       C  0.49713879  0.57448463  0.65857177     0.09200
H1389       H  0.39050088  0.62410866  0.67016862     0.13700
H1390       H  0.52673990  0.60674424  0.70368246    -0.00600
H1391       H  0.48584632  0.32770678  0.60292714     0.14000
H1392       H  0.45889697  0.55392562  0.61392306     0.13800
C1393       C  0.01884729  0.41940532  0.87791412     0.85600
C1394       C  0.03622537  0.41020007  0.91642148    -0.54700
C1395       C  0.00564235  0.41236285  0.94368461     0.08500
C1396       C  0.95919096  0.42265728  0.93011898     0.19500
C1397       C  0.97955273  0.39311425  0.87241183    -0.55400
C1398       C  0.94816437  0.39503671  0.90018971     0.08600
C1399       C  0.99628470  0.45544234  0.88139074    -0.54900
C1400       C  0.96554123  0.45729224  0.90883729     0.09200
H1401       H  0.07096824  0.40417195  0.92192732     0.14500
H1402       H  0.93401794  0.42411089  0.95256038    -0.00600
H1403       H  0.97907995  0.37233844  0.85185663     0.14000
H1404       H  0.00434226  0.47773051  0.86358438     0.13800
Zr1405     Zr  0.14113308  0.48436949  0.61993409     2.17500
O1406       O  0.15628885  0.53390751  0.66129982    -0.52200
O1407       O  0.18266828  0.52964603  0.58274633    -0.75400
O1408       O  0.18679106  0.46853036  0.67466047    -0.82200
O1409       O  0.03674599  0.51992500  0.57752051    -0.84000
O1410       O  0.21729773  0.41386968  0.66782136    -0.79600
O1411       O  0.07449004  0.52077240  0.63174174    -0.91200
O1412       O  0.21950920  0.49791360  0.54032833    -0.77200
O1413       O  0.19365305  0.44873240  0.58703602    -0.86700
O1414       O  0.11825231  0.48639429  0.55671118    -0.86400
O1415       O  0.13281764  0.42437416  0.64302180    -0.73100
O1416       O  0.06629223  0.46043651  0.61752164    -0.85300
Zr1417     Zr  0.09109587  0.36809752  0.54467515     2.26400
Zr1418     Zr  0.18650817  0.38923237  0.61039169     2.06300
Zr1419     Zr  0.04508850  0.46114376  0.55409778     2.10000
Zr1420     Zr  0.16985084  0.45105882  0.52404205     1.78800
O1421       O  0.96918211  0.46231336  0.57766931    -0.94100
O1422       O  0.24360904  0.43487638  0.50198398    -0.41900
O1423       O  0.09681595  0.42654412  0.51986582    -0.78500
O1424       O  0.16567536  0.39227204  0.54663951    -0.97200
O1425       O  0.11232807  0.36534721  0.60784573    -0.90500
O1426       O  0.03755490  0.40226439  0.57699736    -0.93300
C1427       C  0.20896424  0.52730062  0.55464868     1.00400
C1428       C  0.04424381  0.53242275  0.60963955     1.13300
C1429       C  0.20951393  0.44195475  0.68680128     1.04100
O1430       O  0.26576961  0.39364123  0.59704863    -0.95500
O1431       O  0.20385888  0.33362677  0.57738226    -0.91200
O1432       O  0.14972422  0.65890240  0.53444989    -0.84400
C1433       C  0.18684743  0.65069449  0.54958516     1.10800
O1434       O  0.04833362  0.43083585  0.69878038    -0.97500
Zr1435     Zr  0.05960112  0.40107446  0.63984549     1.88900
O1436       O  0.04134944  0.65907430  0.57504402    -0.74100
O1437       O  0.19602978  0.34137246  0.65475601    -0.53400
O1438       O  0.08297208  0.36293280  0.69047239    -0.98100
O1439       O  0.98126386  0.41446025  0.65035526    -0.55300
O1440       O  0.02126691  0.34591701  0.63147868    -0.74600
C1441       C  0.02096093  0.65601572  0.60604974     0.97700
O1442       O  0.07905940  0.32066154  0.00043088    -0.63500
O1443       O  0.02870907  0.49969772  0.50186901    -0.58300
O1444       O  0.05004970  0.38767527  0.49021408    -0.94900
O1445       O  0.00467473  0.43323708  0.50460090    -0.93400
O1446       O  0.14432399  0.49536321  0.48015474    -0.93700
O1447       O  0.17591265  0.43072270  0.46050547    -0.92500
C1448       C  0.01981087  0.41003851  0.98223779     1.16500
H1449       H  0.11736218  0.51024096  0.54719128     0.32500
H1450       H  0.18668567  0.38060222  0.53078894     0.43300
H1451       H  0.00775485  0.39327794  0.57322884     0.36900
H1452       H  0.13603152  0.42224289  0.66926908     0.33400
H1453       H  0.25535506  0.45631921  0.48955712     0.25100
H1454       H  0.22713208  0.34365335  0.66356673     0.31100
H1455       H  0.05511528  0.35245070  0.70035827     0.37000
H1456       H  0.11530190  0.48622443  0.47122398     0.31400
H1457       H  0.99974556  0.51060202  0.50790605     0.30300
H1458       H  0.97083424  0.47623877  0.60073555     0.32000
H1459       H  0.97172585  0.39799089  0.67014955     0.31000
H1460       H  0.15196625  0.41281858  0.45787275     0.35000
H1461       H  0.04631267  0.31926855  0.99740028     0.27700
H1462       H  0.18909543  0.53528402  0.66381348     0.31900
H1463       H  0.03160175  0.41402480  0.71460811     0.34800
H1464       H  0.05054932  0.51932866  0.50357091     0.27400
H1465       H  0.08929688  0.32846629  0.47706529     0.40300
H1466       H  0.27991019  0.37741334  0.61495928     0.30300
H1467       H  0.26184358  0.43261050  0.52464175     0.37900
H1468       H  0.96544787  0.40584960  0.62813263     0.29800
H1469       H  0.17755203  0.34811502  0.67621592     0.29900
H1470       H  0.14527774  0.52649994  0.68592125     0.30100
C1471       C  0.21789772  0.44036324  0.72832364     0.85600
C1472       C  0.23497131  0.47449900  0.74591459    -0.54700
C1473       C  0.23859213  0.47335819  0.78376277     0.08500
C1474       C  0.22429788  0.43751384  0.80057074     0.19500
C1475       C  0.24959574  0.41157817  0.74260572    -0.55400
C1476       C  0.25268052  0.40988931  0.78048723     0.08600
C1477       C  0.17381944  0.43273262  0.74816979    -0.54900
C1478       C  0.17680420  0.43092412  0.78559872     0.09200
H1479       H  0.24307641  0.49777995  0.72965391     0.13700
H1480       H  0.22699627  0.43631687  0.83113153    -0.00600
H1481       H  0.26674897  0.39330549  0.72451391     0.14000
H1482       H  0.14230209  0.43000372  0.73375702     0.13800
Zr1483     Zr  0.32124451  0.54761992  0.87009242     2.17500
O1484       O  0.30449631  0.49753975  0.91046527    -0.52200
O1485       O  0.28044113  0.50267692  0.83240421    -0.75400
O1486       O  0.27525124  0.56342908  0.92451476    -0.82200
O1487       O  0.42162344  0.51021540  0.82751117    -0.84000
O1488       O  0.24547409  0.61837435  0.91777720    -0.79600
O1489       O  0.38760176  0.51139886  0.88309305    -0.91200
O1490       O  0.24322091  0.53446178  0.79008611    -0.77200
O1491       O  0.26908207  0.58357744  0.83706360    -0.86700
O1492       O  0.34409702  0.54570834  0.80679427    -0.86400
O1493       O  0.33012693  0.60742550  0.89310303    -0.73100
O1494       O  0.39660047  0.57077241  0.86845481    -0.85300
Zr1495     Zr  0.37273672  0.66308772  0.79473156     2.26400
Zr1496     Zr  0.27685292  0.64288876  0.86041436     2.06300
Zr1497     Zr  0.41775319  0.56989404  0.80507541     2.10000
Zr1498     Zr  0.29274093  0.58144281  0.77405572     1.78800
O1499       O  0.49290505  0.57115920  0.83029579    -0.94100
O1500       O  0.21931273  0.59986324  0.75305692    -0.41900
O1501       O  0.36641437  0.60467042  0.77038823    -0.78500
O1502       O  0.29777015  0.63987332  0.79677752    -0.97200
O1503       O  0.35133839  0.66616190  0.85790730    -0.90500
O1504       O  0.42597735  0.62877258  0.82750544    -0.93300
C1505       C  0.25426154  0.50507045  0.80425207     1.00400
C1506       C  0.41629145  0.49870656  0.86033676     1.13300
C1507       C  0.25286966  0.59011603  0.93669645     1.04100
O1508       O  0.19749721  0.63920106  0.84710452    -0.95500
O1509       O  0.26116983  0.36579503  0.82750526    -0.91200
O1510       O  0.31495809  0.37307280  0.78378817    -0.84400
C1511       C  0.27829610  0.38182692  0.79924866     1.10800
O1512       O  0.41335771  0.60042875  0.94965502    -0.97500
Zr1513     Zr  0.40364080  0.63025885  0.89036962     1.88900
O1514       O  0.42218380  0.37184023  0.82560625    -0.74100
O1515       O  0.26587076  0.35792508  0.90408382    -0.53400
O1516       O  0.38127916  0.33375563  0.94198080    -0.98100
O1517       O  0.48233497  0.61829969  0.90134713    -0.55300
O1518       O  0.44225422  0.35184216  0.88221879    -0.74600
C1519       C  0.44269354  0.37499920  0.85651724     0.97700
O1520       O  0.38775111  0.37805624  0.75191046    -0.63500
O1521       O  0.44162853  0.53047805  0.75580715    -0.58300
O1522       O  0.41260931  0.64343276  0.73979796    -0.94900
O1523       O  0.45459386  0.59528686  0.75248406    -0.93400
O1524       O  0.31583788  0.53723565  0.72933378    -0.93700
O1525       O  0.28639934  0.60389113  0.71119081    -0.92500
C1526       C  0.44132800  0.61986325  0.73109522     1.16500
H1527       H  0.34479923  0.52202690  0.79697631     0.32500
H1528       H  0.27690112  0.65170320  0.78084876     0.43300
H1529       H  0.45589129  0.63760812  0.82368830     0.36900
H1530       H  0.32666203  0.60944152  0.91927670     0.33400
H1531       H  0.20703369  0.57923094  0.73964455     0.25100
H1532       H  0.23395288  0.35659258  0.91088222     0.31100
H1533       H  0.40900348  0.34543535  0.95053033     0.37000
H1534       H  0.34471671  0.54606882  0.71974923     0.31400
H1535       H  0.46716762  0.51729780  0.76603902     0.30300
H1536       H  0.49908656  0.54644700  0.83757844     0.32000
H1537       H  0.49097147  0.63439300  0.92167576     0.31000
H1538       H  0.30878959  0.62315037  0.70965952     0.35000
H1539       H  0.41899316  0.71388933  0.75028600     0.27700
H1540       H  0.27165501  0.49673604  0.91285119     0.31900
H1541       H  0.43003691  0.61709625  0.96560536     0.34800
H1542       H  0.41747928  0.51268695  0.75341328     0.27400
H1543       H  0.37707334  0.36995073  0.72741755     0.40300
H1544       H  0.18853542  0.61506827  0.85479254     0.30300
H1545       H  0.20119054  0.60128579  0.77585026     0.37900
H1546       H  0.49820875  0.62790909  0.87954436     0.29800
H1547       H  0.28197485  0.35063087  0.92666091     0.29900
H1548       H  0.31557636  0.50430308  0.93523174     0.30100
C1549       C  0.24524304  0.59172804  0.97830000     0.85600
C1550       C  0.22774927  0.55781661  0.49611954    -0.54700
C1551       C  0.22519310  0.55900255  0.53406734     0.08500
C1552       C  0.24114478  0.59472112  0.55043995     0.19500
C1553       C  0.21442575  0.62088099  0.49279079    -0.55400
C1554       C  0.21260297  0.62275176  0.53073133     0.08600
C1555       C  0.28971678  0.59871763  0.49675727    -0.54900
C1556       C  0.28830119  0.60022026  0.53416794     0.09200
H1557       H  0.21962070  0.53449885  0.98044432     0.13700
H1558       H  0.23981354  0.59591514  0.58105362    -0.00600
H1559       H  0.19637457  0.63873272  0.97514956     0.14000
H1560       H  0.32060617  0.60233939  0.48162072     0.13800
C1561       C  0.06404225  0.39918263  0.82128483    -0.22200
C1562       C  0.05843972  0.42150559  0.85180496    -0.10300
C1563       C  0.09279950  0.44602338  0.86036377     0.28600
C1564       C  0.13145589  0.44781233  0.83945254    -0.22200
C1565       C  0.13691676  0.42589015  0.80899508    -0.10300
C1566       C  0.10298868  0.40137778  0.79994988     0.28600
F1567       F  0.10790287  0.37904323  0.77100717    -0.20800
H1568       H  0.03891209  0.37987608  0.81400326     0.17000
H1569       H  0.15673582  0.46716738  0.84659241     0.17000
F1570       F  0.08922632  0.46819219  0.88966019    -0.20800
C1571       C  0.40641896  0.58995235  0.56831889    -0.22200
C1572       C  0.40926556  0.61575406  0.59622100    -0.10300
C1573       C  0.37359516  0.63994080  0.59923143     0.28600
C1574       C  0.33373616  0.63421767  0.57992600    -0.22200
C1575       C  0.32969658  0.60579710  0.55552107    -0.10300
C1576       C  0.36711322  0.58474141  0.54854431     0.28600
F1577       F  0.36524976  0.55822196  0.52338032    -0.20800
H1578       H  0.43415025  0.57297645  0.56203295     0.17000
H1579       H  0.30615371  0.65213951  0.58377142     0.17000
F1580       F  0.37651596  0.66835851  0.62190543    -0.20800
C1581       C  0.59117526  0.42434869  0.97686947    -0.22200
C1582       C  0.63217452  0.43952409  0.96640360    -0.10300
C1583       C  0.63275309  0.46424812  0.93762512     0.28600
C1584       C  0.59398701  0.47114019  0.91767641    -0.22200
C1585       C  0.55418535  0.45206870  0.92457647    -0.10300
C1586       C  0.55240857  0.43109905  0.95676139     0.28600
F1587       F  0.51360472  0.41609477  0.96816818    -0.20800
H1588       H  0.58925385  0.40648862  0.00022156     0.17000
H1589       H  0.59591258  0.49075027  0.89598206     0.17000
F1590       F  0.67057382  0.48207545  0.92891262    -0.20800
C1591       C  0.86939059  0.56046710  0.66948876    -0.22200
C1592       C  0.90865506  0.58035551  0.67575637    -0.10300
C1593       C  0.90995765  0.60197980  0.70738270     0.28600
C1594       C  0.87094852  0.60862007  0.72723207    -0.22200
C1595       C  0.83024127  0.59281239  0.71696645    -0.10300
C1596       C  0.83033097  0.56741523  0.68896187     0.28600
F1597       F  0.79289583  0.54898707  0.68054072    -0.20800
H1598       H  0.86805166  0.54042388  0.64827789     0.17000
H1599       H  0.87243092  0.62684594  0.75021095     0.17000
F1600       F  0.94856356  0.61727989  0.71876861    -0.20800
C1601       C  0.94410910  0.91694434  0.14503911     0.85600
C1602       C  0.92534750  0.90910554  0.10631939    -0.54700
C1603       C  0.95545105  0.91162210  0.07861164     0.08500
C1604       C  0.00199782  0.92262405  0.09134067     0.19500
C1605       C  0.98432071  0.89196195  0.14901273    -0.55400
C1606       C  0.01451391  0.89486712  0.12058990     0.08600
C1607       C  0.96466453  0.95414547  0.14056244    -0.54900
C1608       C  0.99523952  0.95693284  0.11283779     0.09200
H1609       H  0.89035627  0.90476092  0.10030661     0.13700
H1610       H  0.02646341  0.92494359  0.06841687    -0.00600
H1611       H  0.98584618  0.87119706  0.16968751     0.14000
H1612       H  0.95541389  0.97671149  0.15723217     0.13800
C1613       C  0.51773298  0.78239039  0.39445717     0.85600
C1614       C  0.53567696  0.79068089  0.35554326    -0.54700
C1615       C  0.50530098  0.78754733  0.32810927     0.08500
C1616       C  0.45924970  0.77592720  0.34132086     0.19500
C1617       C  0.47692986  0.80670558  0.39882307    -0.55400
C1618       C  0.44649558  0.80346622  0.37061962     0.08600
C1619       C  0.49808184  0.74489793  0.39020271    -0.54900
C1620       C  0.46724032  0.74172435  0.36277891     0.09200
H1621       H  0.57049205  0.79528632  0.34907784     0.13700
H1622       H  0.43454287  0.77325152  0.31863015    -0.00600
H1623       H  0.47516475  0.82737094  0.41949762     0.14000
H1624       H  0.50812660  0.72245224  0.40684098     0.13800
Zr1625     Zr  0.64170789  0.71478103  0.15360396     2.17500
O1626       O  0.65720734  0.66356436  0.11495092    -0.52200
O1627       O  0.68325524  0.67031555  0.19075196    -0.75400
O1628       O  0.68798095  0.72972102  0.09906274    -0.82200
O1629       O  0.53984238  0.67758928  0.19583717    -0.84000
O1630       O  0.71641417  0.78560582  0.10396673    -0.79600
O1631       O  0.57391835  0.67970476  0.14026578    -0.91200
O1632       O  0.72061196  0.70279948  0.23258023    -0.77200
O1633       O  0.69429008  0.75102555  0.18627532    -0.86700
O1634       O  0.61877617  0.71282157  0.21687448    -0.86400
O1635       O  0.63376915  0.77435664  0.12986166    -0.73100
O1636       O  0.56689550  0.73794250  0.15522454    -0.85300
Zr1637     Zr  0.59198645  0.83076078  0.22718943     2.26400
Zr1638     Zr  0.68764381  0.81010976  0.16209109     2.06300
Zr1639     Zr  0.54546255  0.73709356  0.21853652     2.10000
Zr1640     Zr  0.67047985  0.74894162  0.24919859     1.78800
O1641       O  0.47024258  0.73536015  0.19348065    -0.94100
O1642       O  0.74333572  0.76817691  0.27123191    -0.41900
O1643       O  0.59722675  0.77248492  0.25259741    -0.78500
O1644       O  0.66660054  0.80745097  0.22583786    -0.97200
O1645       O  0.61347974  0.83336238  0.16406206    -0.90500
O1646       O  0.53840817  0.79584279  0.19511342    -0.93300
C1647       C  0.71008665  0.67318984  0.21839293     1.00400
C1648       C  0.54506131  0.66658598  0.16284692     1.13300
C1649       C  0.70962093  0.75664443  0.08598933     1.04100
O1650       O  0.76673045  0.80200992  0.17390848    -0.95500
O1651       O  0.70482085  0.86618988  0.19480886    -0.91200
O1652       O  0.65025259  0.87418580  0.23753827    -0.84400
C1653       C  0.68742404  0.88272432  0.22244430     1.10800
O1654       O  0.54906034  0.76672899  0.07369179    -0.97500
Zr1655     Zr  0.56068210  0.79709940  0.13231567     1.88900
O1656       O  0.54263254  0.87293643  0.19705369    -0.74100
O1657       O  0.69939837  0.85931466  0.11964551    -0.53400
O1658       O  0.58587265  0.83329277  0.08049028    -0.98100
O1659       O  0.48194405  0.78479483  0.12141603    -0.55300
O1660       O  0.52361880  0.85256957  0.14040641    -0.74600
C1661       C  0.52255066  0.87577364  0.16594660     0.97700
O1662       O  0.57880852  0.87893957  0.27044995    -0.63500
O1663       O  0.52570029  0.69852121  0.27016426    -0.58300
O1664       O  0.55026413  0.81138563  0.28134893    -0.94900
O1665       O  0.50543071  0.76468990  0.26808214    -0.93400
O1666       O  0.64844920  0.70364391  0.29356895    -0.93700
O1667       O  0.67420429  0.77043943  0.31246691    -0.92500
C1668       C  0.51978450  0.78877892  0.28968639     1.16500
H1669       H  0.61802704  0.68907531  0.22665613     0.32500
H1670       H  0.68745711  0.81956663  0.24162017     0.43300
H1671       H  0.50865350  0.80470442  0.19878112     0.36900
H1672       H  0.63680101  0.77600472  0.10352644     0.33400
H1673       H  0.75679075  0.74687263  0.28238901     0.25100
H1674       H  0.73162123  0.85891559  0.11383714     0.31100
H1675       H  0.55982706  0.84774564  0.07350315     0.37000
H1676       H  0.61958987  0.71180005  0.30351573     0.31400
H1677       H  0.50071865  0.68371108  0.26114637     0.30300
H1678       H  0.47225460  0.72055012  0.17105988     0.32000
H1679       H  0.47250589  0.80290826  0.10332058     0.31000
H1680       H  0.66070102  0.79421611  0.31145841     0.35000
H1681       H  0.54608232  0.88136498  0.27181728     0.27700
H1682       H  0.68997835  0.66292822  0.11203449     0.31900
H1683       H  0.53090071  0.78279393  0.05830473     0.34800
H1684       H  0.55098257  0.68201549  0.27266448     0.27400
H1685       H  0.58781925  0.87006850  0.29508884     0.40300
H1686       H  0.78189912  0.81644445  0.15480107     0.30300
H1687       H  0.76090494  0.77249982  0.24850148     0.37900
H1688       H  0.46657241  0.79148552  0.14450097     0.29800
H1689       H  0.68451586  0.85206034  0.09646922     0.29900
H1690       H  0.64560228  0.66957831  0.09014430     0.30100
C1691       C  0.71686470  0.75737693  0.04437692     0.85600
C1692       C  0.73416806  0.72341804  0.02700827    -0.54700
C1693       C  0.73571947  0.72439251  0.48904328     0.08500
C1694       C  0.71991207  0.75979441  0.47200451     0.19500
C1695       C  0.74737946  0.78664641  0.02907712    -0.55400
C1696       C  0.74855341  0.78824421  0.49116727     0.08600
C1697       C  0.67128638  0.76411425  0.52562937    -0.54900
C1698       C  0.67266980  0.76542685  0.48810671     0.09200
H1699       H  0.74347843  0.70064267  0.04349117     0.13700
H1700       H  0.72154266  0.76054762  0.44138743    -0.00600
H1701       H  0.76488407  0.80536661  0.04662959     0.14000
H1702       H  0.64140766  0.76754685  0.04057931     0.13800
Zr1703     Zr  0.82101217  0.98416450  0.40319869     2.17500
O1704       O  0.80459004  0.03468344  0.36343034    -0.52200
O1705       O  0.77922874  0.69552878  0.44110067    -0.75400
O1706       O  0.77502186  0.96952156  0.34858805    -0.82200
O1707       O  0.92980130  0.68414609  0.44149362    -0.84000
O1708       O  0.74496034  0.91427996  0.35423034    -0.79600
O1709       O  0.88657207  0.68832971  0.39021541    -0.91200
O1710       O  0.74253348  0.66331960  0.48378603    -0.77200
O1711       O  0.76823157  0.94791562  0.43578952    -0.86700
O1712       O  0.84453083  0.98532975  0.46617216    -0.86400
O1713       O  0.82876317  0.92459506  0.37933090    -0.73100
O1714       O  0.89545209  0.96011384  0.40460644    -0.85300
Zr1715     Zr  0.87030458  0.86736545  0.47711083     2.26400
Zr1716     Zr  0.77477382  0.88884947  0.41160179     2.06300
Zr1717     Zr  0.91738923  0.96017984  0.46779582     2.10000
Zr1718     Zr  0.79241247  0.94944042  0.49864888     1.78800
O1719       O  0.99390547  0.95949041  0.44553758    -0.94100
O1720       O  0.71881883  0.93053605  0.51930509    -0.41900
O1721       O  0.86534515  0.92545355  0.50218651    -0.78500
O1722       O  0.79592294  0.89108821  0.47530352    -0.97200
O1723       O  0.84860276  0.86494895  0.41387959    -0.90500
O1724       O  0.92412633  0.90163909  0.44446014    -0.93300
C1725       C  0.75271556  0.69281299  0.46907165     1.00400
C1726       C  0.91933930  0.69836138  0.41076622     1.13300
C1727       C  0.75263322  0.94292002  0.33588006     1.04100
O1728       O  0.69532399  0.89377176  0.42357627    -0.95500
O1729       O  0.75731683  0.83281601  0.44436460    -0.91200
O1730       O  0.81178751  0.82430137  0.48709660    -0.84400
C1731       C  0.77453221  0.81615988  0.47205288     1.10800
O1732       O  0.91473940  0.93087341  0.32283748    -0.97500
Zr1733     Zr  0.90145625  0.90097462  0.38168879     1.88900
O1734       O  0.92015804  0.82555686  0.44748456    -0.74100
O1735       O  0.76311550  0.84114098  0.36752988    -0.53400
O1736       O  0.87496194  0.86510119  0.33023410    -0.98100
O1737       O  0.98050770  0.91207660  0.37053127    -0.55300
O1738       O  0.93734039  0.84507323  0.38997134    -0.74600
C1739       C  0.93942103  0.82241813  0.41608830     0.97700
O1740       O  0.88647345  0.81870262  0.01888998    -0.63500
O1741       O  0.93300906  0.00087757  0.01828042    -0.58300
O1742       O  0.90985852  0.88731522  0.03223714    -0.94900
O1743       O  0.95645974  0.93259438  0.01781746    -0.93400
O1744       O  0.81747680  0.99463264  0.04261986    -0.93700
O1745       O  0.78736365  0.92814586  0.06204685    -0.92500
C1746       C  0.94099587  0.90951527  0.04018167     1.16500
H1747       H  0.84526865  0.67602265  0.47590803     0.32500
H1748       H  0.77490093  0.87909626  0.49111498     0.43300
H1749       H  0.95382061  0.89267197  0.44804736     0.36900
H1750       H  0.82552377  0.92301962  0.35311332     0.33400
H1751       H  0.70677783  0.95093460  0.53304192     0.25100
H1752       H  0.73105076  0.84212943  0.36122919     0.31100
H1753       H  0.90105604  0.85114285  0.32236829     0.37000
H1754       H  0.84524574  0.65112732  0.05343797     0.31400
H1755       H  0.96357483  0.00978284  0.01355027     0.30300
H1756       H  0.99294406  0.97116204  0.42106286     0.32000
H1757       H  0.98860782  0.89592327  0.35017473     0.31000
H1758       H  0.80912357  0.90864644  0.06338646     0.35000
H1759       H  0.91920298  0.81879650  0.02184318     0.27700
H1760       H  0.77235804  0.70296691  0.36099544     0.31900
H1761       H  0.92962224  0.91352223  0.30664671     0.34800
H1762       H  0.91167169  0.68796596  0.01437091     0.27400
H1763       H  0.87470698  0.82582678  0.04331508     0.40300
H1764       H  0.68083657  0.88461607  0.40094815     0.30300
H1765       H  0.70074430  0.92942972  0.49645550     0.37900
H1766       H  0.99611231  0.90228541  0.39229470     0.29800
H1767       H  0.77866095  0.84892970  0.34480245     0.29900
H1768       H  0.81476784  0.02816285  0.33835633     0.30100
C1769       C  0.74551234  0.94193684  0.29430841     0.85600
C1770       C  0.72855060  0.97586079  0.27662566    -0.54700
C1771       C  0.72612395  0.97501110  0.23872597     0.08500
C1772       C  0.74180068  0.93950688  0.22192205     0.19500
C1773       C  0.71486417  0.91266938  0.27919424    -0.55400
C1774       C  0.71308744  0.91104788  0.24130302     0.08600
C1775       C  0.79033304  0.93552366  0.27557074    -0.54900
C1776       C  0.78903222  0.93405158  0.23811267     0.09200
H1777       H  0.71947074  0.99875071  0.29288041     0.13700
H1778       H  0.74027648  0.93865536  0.19130488    -0.00600
H1779       H  0.69718280  0.89409382  0.29688143     0.14000
H1780       H  0.82096772  0.93162519  0.29086474     0.13800
C1781       C  0.44531374  0.94720347  0.12596496     0.85600
C1782       C  0.42545388  0.95380675  0.16445268    -0.54700
C1783       C  0.45520045  0.95184786  0.19252597     0.08500
C1784       C  0.50231314  0.94240015  0.18038885     0.19500
C1785       C  0.48470774  0.97361916  0.12310098    -0.55400
C1786       C  0.51448633  0.97099279  0.15186505     0.08600
C1787       C  0.46735733  0.91059732  0.13011663    -0.54900
C1788       C  0.49716752  0.90823070  0.15832919     0.09200
H1789       H  0.39019248  0.95774009  0.16957196     0.13700
H1790       H  0.52626689  0.94046797  0.20369299    -0.00600
H1791       H  0.48646153  0.66158787  0.10261035     0.14000
H1792       H  0.45935047  0.88768678  0.11350631     0.13800
C1793       C  0.01878303  0.75250552  0.37804931     0.85600
C1794       C  0.03616549  0.74336828  0.41657957    -0.54700
C1795       C  0.00553535  0.74549502  0.44382565     0.08500
C1796       C  0.95911183  0.75578522  0.43026528     0.19500
C1797       C  0.97949206  0.72620163  0.37257180    -0.55400
C1798       C  0.94807455  0.72819296  0.40032250     0.08600
C1799       C  0.99616579  0.78854442  0.38152953    -0.54900
C1800       C  0.96546445  0.79040689  0.40903796     0.09200
H1801       H  0.07092098  0.73739112  0.42210835     0.14500
H1802       H  0.93394723  0.75723936  0.45271449    -0.00600
H1803       H  0.97898307  0.70543731  0.35200412     0.14000
H1804       H  0.00417692  0.81082394  0.36369968     0.13800
Zr1805     Zr  0.14091028  0.81766599  0.12004127     2.17500
O1806       O  0.15638208  0.86723660  0.16129924    -0.52200
O1807       O  0.18211438  0.86298059  0.08268499    -0.75400
O1808       O  0.18666805  0.80195655  0.17476410    -0.82200
O1809       O  0.03628378  0.85311994  0.07787764    -0.84000
O1810       O  0.21731782  0.74734202  0.16791926    -0.79600
O1811       O  0.07438931  0.85419827  0.13192180    -0.91200
O1812       O  0.21950892  0.83106884  0.04080164    -0.77200
O1813       O  0.19353106  0.78214306  0.08710570    -0.86700
O1814       O  0.11780677  0.81961109  0.05685816    -0.86400
O1815       O  0.13290742  0.75763625  0.14318543    -0.73100
O1816       O  0.06614922  0.79359579  0.11771346    -0.85300
Zr1817     Zr  0.09118781  0.70156552  0.04454495     2.26400
Zr1818     Zr  0.18663914  0.72260771  0.11045412     2.06300
Zr1819     Zr  0.04461286  0.79438510  0.05435337     2.10000
Zr1820     Zr  0.16963203  0.78448045  0.02413714     1.78800
O1821       O  0.96901030  0.79618343  0.07862507    -0.94100
O1822       O  0.24293537  0.76753937  0.00165440    -0.41900
O1823       O  0.09654870  0.76009212  0.01992682    -0.78500
O1824       O  0.16579077  0.72564131  0.04669094    -0.97200
O1825       O  0.11253036  0.69871007  0.10771325    -0.90500
O1826       O  0.03749024  0.73542270  0.07711714    -0.93300
C1827       C  0.20871578  0.86053541  0.05480877     1.00400
C1828       C  0.04405110  0.86579153  0.10987701     1.13300
C1829       C  0.20944731  0.77541401  0.18691042     1.04100
O1830       O  0.26567778  0.72731173  0.09622363    -0.95500
O1831       O  0.20333645  0.66653817  0.07803888    -0.91200
O1832       O  0.14960354  0.99220859  0.03434043    -0.84400
C1833       C  0.18661569  0.98385975  0.04957063     1.10800
O1834       O  0.04888338  0.76342328  0.19922011    -0.97500
Zr1835     Zr  0.05980050  0.73419228  0.13992027     1.88900
O1836       O  0.04107802  0.99274388  0.07458038    -0.74100
O1837       O  0.19698859  0.67467113  0.15461832    -0.53400
O1838       O  0.08224678  0.69550472  0.19042161    -0.98100
O1839       O  0.98162557  0.74806148  0.15022941    -0.55300
O1840       O  0.02185560  0.67898603  0.13104453    -0.74600
C1841       C  0.02085328  0.98953842  0.10565022     0.97700
O1842       O  0.07805091  0.65348889  0.50126532    -0.63500
O1843       O  0.02682397  0.83351308  0.00289519    -0.58300
O1844       O  0.05099938  0.72155273  0.98975359    -0.94900
O1845       O  0.00452863  0.76620523  0.00468694    -0.93400
O1846       O  0.14486682  0.82963561  0.98092217    -0.93700
O1847       O  0.17465863  0.76470437  0.96033914    -0.92500
C1848       C  0.01955296  0.74307174  0.48239334     1.16500
H1849       H  0.11680851  0.84346374  0.04737604     0.32500
H1850       H  0.18686739  0.71393673  0.03092188     0.43300
H1851       H  0.00773022  0.72633699  0.07336849     0.36900
H1852       H  0.13609320  0.75549272  0.16943494     0.33400
H1853       H  0.25597497  0.78938250  0.99100471     0.25100
H1854       H  0.22864914  0.67626551  0.16211489     0.31100
H1855       H  0.05409655  0.68601767  0.20081237     0.37000
H1856       H  0.11493034  0.82161574  0.97296513     0.31400
H1857       H  0.99781527  0.84408025  0.00942105     0.30300
H1858       H  0.97115787  0.80993255  0.10178498     0.32000
H1859       H  0.97182925  0.73150721  0.16985642     0.31000
H1860       H  0.15267492  0.74519597  0.95846972     0.35000
H1861       H  0.04530585  0.65237233  0.49809638     0.27700
H1862       H  0.18921533  0.86870364  0.16351433     0.31900
H1863       H  0.03095114  0.74698520  0.21456341     0.34800
H1864       H  0.04840738  0.85332217  0.00462539     0.27400
H1865       H  0.08861509  0.66226938  0.97673405     0.40300
H1866       H  0.28069291  0.71494067  0.11681638     0.30300
H1867       H  0.26059583  0.76312213  0.02427079     0.37900
H1868       H  0.96585987  0.73968540  0.12788988     0.29800
H1869       H  0.18006767  0.68186052  0.17679223     0.29900
H1870       H  0.14571707  0.85983338  0.18602595     0.30100
C1871       C  0.21778567  0.77379967  0.22844622     0.85600
C1872       C  0.23477330  0.80792725  0.24610822    -0.54700
C1873       C  0.23853926  0.80666858  0.28393474     0.08500
C1874       C  0.22428200  0.77078879  0.30068527     0.19500
C1875       C  0.24957034  0.74504737  0.24264064    -0.55400
C1876       C  0.25261009  0.74325305  0.28051736     0.08600
C1877       C  0.17374578  0.76602464  0.24832451    -0.54900
C1878       C  0.17680471  0.76412067  0.28575601     0.09200
H1879       H  0.24280283  0.83126333  0.22991246     0.13700
H1880       H  0.22704782  0.76951564  0.33124028    -0.00600
H1881       H  0.26675900  0.72683824  0.22450038     0.14000
H1882       H  0.14222391  0.76322125  0.23393934     0.13800
Zr1883     Zr  0.32124225  0.88090641  0.36996084     2.17500
O1884       O  0.30479217  0.83107439  0.41073998    -0.52200
O1885       O  0.28094389  0.83572268  0.33237495    -0.75400
O1886       O  0.27524567  0.89667995  0.42436542    -0.82200
O1887       O  0.42135977  0.84366627  0.32721913    -0.84000
O1888       O  0.24482801  0.95138763  0.41759019    -0.79600
O1889       O  0.38759634  0.84478355  0.38290296    -0.91200
O1890       O  0.24320024  0.86774730  0.29062613    -0.77200
O1891       O  0.26887312  0.91679072  0.33705676    -0.86700
O1892       O  0.34404194  0.87911501  0.30660294    -0.86400
O1893       O  0.32979498  0.94070112  0.39301791    -0.73100
O1894       O  0.39651727  0.90411914  0.36833151    -0.85300
Zr1895     Zr  0.37238734  0.99646194  0.29493840     2.26400
Zr1896     Zr  0.27634542  0.97610081  0.36042690     2.06300
Zr1897     Zr  0.41765187  0.90340641  0.30498317     2.10000
Zr1898     Zr  0.29247173  0.91481707  0.27405183     1.78800
O1899       O  0.49256176  0.90414069  0.33073109    -0.94100
O1900       O  0.21884157  0.93262066  0.25295838    -0.41900
O1901       O  0.36610879  0.93811838  0.27051347    -0.78500
O1902       O  0.29735946  0.97328216  0.29682234    -0.97200
O1903       O  0.35086802  0.99935934  0.35812133    -0.90500
O1904       O  0.42579948  0.96221040  0.32767492    -0.93300
C1905       C  0.25445462  0.83826116  0.30446316     1.00400
C1906       C  0.41616974  0.83212470  0.36005239     1.13300
C1907       C  0.25261579  0.92323459  0.43653540     1.04100
O1908       O  0.19712637  0.97135753  0.34686835    -0.95500
O1909       O  0.26096605  0.69901532  0.32738470    -0.91200
O1910       O  0.31477888  0.70653887  0.28371537    -0.84400
C1911       C  0.27811487  0.71515274  0.29919697     1.10800
O1912       O  0.41303805  0.93230308  0.44909589    -0.97500
Zr1913     Zr  0.40327886  0.96348353  0.39054932     1.88900
O1914       O  0.42194370  0.70567785  0.32477590    -0.74100
O1915       O  0.26451111  0.68985706  0.40511238    -0.53400
O1916       O  0.37920354  0.66805747  0.44088543    -0.98100
O1917       O  0.48184006  0.95191855  0.40259581    -0.55300
O1918       O  0.44175141  0.68583317  0.38151925    -0.74600
C1919       C  0.44241394  0.70883659  0.35569773     0.97700
O1920       O  0.38507645  0.71146764  0.25064511    -0.63500
O1921       O  0.44186803  0.86438177  0.25550214    -0.58300
O1922       O  0.41169426  0.97686583  0.23957294    -0.94900
O1923       O  0.45418755  0.92902564  0.25232600    -0.93400
O1924       O  0.31507657  0.87096658  0.22878890    -0.93700
O1925       O  0.28677565  0.93780355  0.21135909    -0.92500
C1926       C  0.44063373  0.95344019  0.23085341     1.16500
H1927       H  0.34479447  0.85547498  0.29666890     0.32500
H1928       H  0.27657780  0.98521357  0.28089402     0.43300
H1929       H  0.45571271  0.97108482  0.32395217     0.36900
H1930       H  0.32629697  0.94272999  0.41918676     0.33400
H1931       H  0.20670892  0.91176103  0.23984158     0.25100
H1932       H  0.23247530  0.68824948  0.41147332     0.31100
H1933       H  0.40668810  0.67940466  0.45039219     0.37000
H1934       H  0.34486421  0.87897159  0.22040401     0.31400
H1935       H  0.46786178  0.85163213  0.26554597     0.30300
H1936       H  0.49918715  0.87913499  0.33647138     0.32000
H1937       H  0.49016157  0.96853231  0.42255587     0.31000
H1938       H  0.31044615  0.95606296  0.20967226     0.35000
H1939       H  0.41810682  0.04758067  0.25050328     0.27700
H1940       H  0.27197745  0.83029078  0.41337344     0.31900
H1941       H  0.42785569  0.94917493  0.46603005     0.34800
H1942       H  0.41815906  0.84619906  0.25334420     0.27400
H1943       H  0.37516243  0.70254761  0.22624189     0.40300
H1944       H  0.18826212  0.94759968  0.35581470     0.30300
H1945       H  0.20076364  0.93422763  0.27576139     0.37900
H1946       H  0.49795048  0.96098047  0.38065944     0.29800
H1947       H  0.28024074  0.68209604  0.42770727     0.29900
H1948       H  0.31615737  0.83796071  0.43538287     0.30100
C1949       C  0.24509419  0.92484679  0.47812390     0.85600
C1950       C  0.22773376  0.89090776  0.99625885    -0.54700
C1951       C  0.22504288  0.89216833  0.03418756     0.08500
C1952       C  0.24087180  0.92794133  0.05054431     0.19500
C1953       C  0.21417205  0.95394035  0.99281967    -0.55400
C1954       C  0.21228494  0.95586543  0.03075958     0.08600
C1955       C  0.28952709  0.93196798  0.99693347    -0.54900
C1956       C  0.28802484  0.93358736  0.03432521     0.09200
H1957       H  0.21911065  0.86774230  0.48009197     0.13700
H1958       H  0.23948115  0.92917541  0.08115345    -0.00600
H1959       H  0.19647335  0.97204843  0.47514085     0.14000
H1960       H  0.32045080  0.93559794  0.98184332     0.13800
C1961       C  0.06424082  0.73200984  0.32158401    -0.22200
C1962       C  0.05841242  0.75454686  0.35192365    -0.10300
C1963       C  0.09262032  0.77923826  0.36032562     0.28600
C1964       C  0.13143659  0.78086864  0.33960685    -0.22200
C1965       C  0.13702698  0.75886989  0.30923310    -0.10300
C1966       C  0.10319102  0.73426669  0.30022504     0.28600
F1967       F  0.10810958  0.71204219  0.27118553    -0.20800
H1968       H  0.03921517  0.71258790  0.31438594     0.17000
H1969       H  0.15661461  0.80033162  0.34667594     0.17000
F1970       F  0.08861952  0.80190621  0.38915108    -0.20800
C1971       C  0.40609806  0.92330533  0.06829624    -0.22200
C1972       C  0.40935147  0.94947139  0.09579639    -0.10300
C1973       C  0.37391169  0.97391400  0.09856446     0.28600
C1974       C  0.33392620  0.96818144  0.07938982    -0.22200
C1975       C  0.32943351  0.93930265  0.05561372    -0.10300
C1976       C  0.36655995  0.91788589  0.04893761     0.28600
F1977       F  0.36414403  0.89078276  0.02449414    -0.20800
H1978       H  0.43362150  0.90611723  0.06206690     0.17000
H1979       H  0.30653608  0.98632207  0.08296351     0.17000
F1980       F  0.37705016  0.00242345  0.12110566    -0.20800
C1981       C  0.59089974  0.75756556  0.47672312    -0.22200
C1982       C  0.63183236  0.77297281  0.46643946    -0.10300
C1983       C  0.63238797  0.79759335  0.43755479     0.28600
C1984       C  0.59361031  0.80446041  0.41762806    -0.22200
C1985       C  0.55390284  0.78522271  0.42433761    -0.10300
C1986       C  0.55219000  0.76403240  0.45639888     0.28600
F1987       F  0.51353410  0.74860776  0.46755039    -0.20800
H1988       H  0.58902362  0.73967413  0.50005212     0.17000
H1989       H  0.59549683  0.82417691  0.39604128     0.17000
F1990       F  0.67022256  0.81530554  0.42862711    -0.20800
C1991       C  0.86895759  0.89432851  0.16903576    -0.22200
C1992       C  0.90825447  0.91421217  0.17518549    -0.10300
C1993       C  0.90962872  0.93596256  0.20672841     0.28600
C1994       C  0.87073295  0.94254043  0.22675045    -0.22200
C1995       C  0.83004192  0.92660309  0.21671246    -0.10300
C1996       C  0.83000976  0.90123864  0.18868851     0.28600
F1997       F  0.79251747  0.88284446  0.18040506    -0.20800
H1998       H  0.86751040  0.87425299  0.14786870     0.17000
H1999       H  0.87227892  0.96082420  0.24967837     0.17000
F2000       F  0.94818767  0.95152885  0.21781819    -0.20800
C2001       C  0.94424154  0.91645113  0.64568010     0.85600
C2002       C  0.92520190  0.90886553  0.60695820    -0.54700
C2003       C  0.95513735  0.91148561  0.57912393     0.08500
C2004       C  0.00178858  0.92228815  0.59173788     0.19500
C2005       C  0.98440465  0.89136894  0.64934040    -0.55400
C2006       C  0.01439552  0.89437360  0.62078047     0.08600
C2007       C  0.96492146  0.95362583  0.64133450    -0.54900
C2008       C  0.99529950  0.95649607  0.61344729     0.09200
H2009       H  0.89016114  0.90461999  0.60106229     0.13700
H2010       H  0.02610491  0.92466151  0.56871256    -0.00600
H2011       H  0.98613498  0.87060183  0.67000233     0.14000
H2012       H  0.95587714  0.97610616  0.65820877     0.13800
C2013       C  0.51838064  0.78166392  0.89506894     0.85600
C2014       C  0.53648066  0.78998898  0.85622498    -0.54700
C2015       C  0.50609269  0.78707066  0.82876123     0.08500
C2016       C  0.45994441  0.77557363  0.84188297     0.19500
C2017       C  0.47778372  0.80615791  0.89945356    -0.55400
C2018       C  0.44731193  0.80307367  0.87127704     0.08600
C2019       C  0.49851692  0.74424257  0.89063914    -0.54900
C2020       C  0.46773851  0.74125097  0.86316461     0.09200
H2021       H  0.57134275  0.79464006  0.84990624     0.13700
H2022       H  0.43523642  0.77306874  0.81917364    -0.00600
H2023       H  0.47626225  0.82689797  0.92006530     0.14000
H2024       H  0.50851486  0.72162962  0.90703112     0.13800
Zr2025     Zr  0.64157888  0.71463885  0.65410244     2.17500
O2026       O  0.65735466  0.66373839  0.61508187    -0.52200
O2027       O  0.68261243  0.66993928  0.69101991    -0.75400
O2028       O  0.68781108  0.72980653  0.59940982    -0.82200
O2029       O  0.53812785  0.67793419  0.69564174    -0.84000
O2030       O  0.71587292  0.78580860  0.60410323    -0.79600
O2031       O  0.57436669  0.67881634  0.64085923    -0.91200
O2032       O  0.72049655  0.70252253  0.73239842    -0.77200
O2033       O  0.69444199  0.75076786  0.68673016    -0.86700
O2034       O  0.61882516  0.71273370  0.71753075    -0.86400
O2035       O  0.63353005  0.77415487  0.63040610    -0.73100
O2036       O  0.56676347  0.73772510  0.65587914    -0.85300
Zr2037     Zr  0.59221124  0.83065987  0.72774642     2.26400
Zr2038     Zr  0.68764615  0.80987776  0.66256598     2.06300
Zr2039     Zr  0.54551185  0.73703157  0.71921533     2.10000
Zr2040     Zr  0.67080140  0.74882319  0.74974287     1.78800
O2041       O  0.46953437  0.73547216  0.69576244    -0.94100
O2042       O  0.74367559  0.76811429  0.77173208    -0.41900
O2043       O  0.59754818  0.77235921  0.75301036    -0.78500
O2044       O  0.66679231  0.80733198  0.72634137    -0.97200
O2045       O  0.61347561  0.83317440  0.66459145    -0.90500
O2046       O  0.53841524  0.79579601  0.69586330    -0.93300
C2047       C  0.70967811  0.67285991  0.71844496     1.00400
C2048       C  0.54463873  0.66626816  0.66303693     1.13300
C2049       C  0.70914890  0.75683375  0.58616149     1.04100
O2050       O  0.76651218  0.80156330  0.67522262    -0.95500
O2051       O  0.70493284  0.86604213  0.69507462    -0.91200
O2052       O  0.65034114  0.87421330  0.73771483    -0.84400
C2053       C  0.68753999  0.88266017  0.72265138     1.10800
O2054       O  0.54639433  0.76634662  0.57485213    -0.97500
Zr2055     Zr  0.56046375  0.79686717  0.63304085     1.88900
O2056       O  0.54291573  0.87297506  0.69740833    -0.74100
O2057       O  0.70099503  0.85905966  0.62041563    -0.53400
O2058       O  0.58694248  0.83262459  0.58135801    -0.98100
O2059       O  0.48162187  0.78477883  0.62231043    -0.55300
O2060       O  0.52347080  0.85232285  0.64094207    -0.74600
C2061       C  0.52268775  0.87570384  0.66630397     0.97700
O2062       O  0.57992260  0.87783492  0.77230736    -0.63500
O2063       O  0.52723188  0.69859209  0.77128474    -0.58300
O2064       O  0.55121553  0.81093448  0.78212554    -0.94900
O2065       O  0.50543645  0.76499019  0.76845449    -0.93400
O2066       O  0.64932884  0.70471635  0.79559650    -0.93700
O2067       O  0.67568793  0.77037505  0.81299564    -0.92500
C2068       C  0.52040053  0.78859593  0.79032923     1.16500
H2069       H  0.61798261  0.68901620  0.72738794     0.32500
H2070       H  0.68766166  0.81952273  0.74205386     0.43300
H2071       H  0.50868462  0.80469636  0.69957420     0.36900
H2072       H  0.63636184  0.77575324  0.60405291     0.33400
H2073       H  0.75627372  0.74722010  0.78435294     0.25100
H2074       H  0.73267677  0.85703128  0.61316426     0.31100
H2075       H  0.56064409  0.84613298  0.57305772     0.37000
H2076       H  0.61949442  0.71211548  0.80411645     0.31400
H2077       H  0.50267061  0.68322380  0.76249349     0.30300
H2078       H  0.47134548  0.72262405  0.67204379     0.32000
H2079       H  0.47248163  0.80219991  0.60338126     0.31000
H2080       H  0.66343514  0.79457740  0.81196871     0.35000
H2081       H  0.54722706  0.87957116  0.77479731     0.27700
H2082       H  0.69017921  0.66289073  0.61269296     0.31900
H2083       H  0.53128703  0.78359322  0.55859969     0.34800
H2084       H  0.55302442  0.68260327  0.77381609     0.27400
H2085       H  0.59045460  0.86871818  0.79643335     0.40300
H2086       H  0.78193522  0.81099271  0.65310238     0.30300
H2087       H  0.76186283  0.77087017  0.74908266     0.37900
H2088       H  0.46620366  0.79251108  0.64501163     0.29800
H2089       H  0.68405068  0.85301793  0.59783818     0.29900
H2090       H  0.64639392  0.67006527  0.59015783     0.30100
C2091       C  0.71608276  0.75766622  0.54446309     0.85600
C2092       C  0.73313649  0.72366849  0.52698897    -0.54700
C2093       C  0.73677503  0.72412454  0.98905782     0.08500
C2094       C  0.72096138  0.75946231  0.97193500     0.19500
C2095       C  0.74673199  0.78684613  0.52908209    -0.55400
C2096       C  0.74931767  0.78805170  0.99117766     0.08600
C2097       C  0.67213133  0.76358359  0.02541039    -0.54900
C2098       C  0.67369145  0.76484695  0.98791474     0.09200
H2099       H  0.74258297  0.70090170  0.54343356     0.13700
H2100       H  0.72265033  0.76021816  0.94131659    -0.00600
H2101       H  0.76448730  0.80545695  0.54659161     0.14000
H2102       H  0.64070682  0.76829603  0.54093068     0.13800
Zr2103     Zr  0.82060233  0.98457930  0.90336071     2.17500
O2104       O  0.80443232  0.03485999  0.86315609    -0.52200
O2105       O  0.77953509  0.69515356  0.94090038    -0.75400
O2106       O  0.77400878  0.96995876  0.84900638    -0.82200
O2107       O  0.93075309  0.68382100  0.94137789    -0.84000
O2108       O  0.74471028  0.91445336  0.85444600    -0.79600
O2109       O  0.88676345  0.68837790  0.89053308    -0.91200
O2110       O  0.74310289  0.66306352  0.98383414    -0.77200
O2111       O  0.76797732  0.94832785  0.93613209    -0.86700
O2112       O  0.84471530  0.98563771  0.96615659    -0.86400
O2113       O  0.82827055  0.92499691  0.87960117    -0.73100
O2114       O  0.89505412  0.96043518  0.90456891    -0.85300
Zr2115     Zr  0.87041509  0.86754300  0.97689636     2.26400
Zr2116     Zr  0.77437979  0.88921314  0.91194462     2.06300
Zr2117     Zr  0.91752818  0.96031878  0.96761045     2.10000
Zr2118     Zr  0.79273256  0.94983454  0.99882554     1.78800
O2119       O  0.99420539  0.95940054  0.94575504    -0.94100
O2120       O  0.71959613  0.93050196  0.02014604    -0.41900
O2121       O  0.86559166  0.92560839  0.00208504    -0.78500
O2122       O  0.79598024  0.89134808  0.97556781    -0.97200
O2123       O  0.84821206  0.86531948  0.91381635    -0.90500
O2124       O  0.92414124  0.90181889  0.94415058    -0.93300
C2125       C  0.75333166  0.69250031  0.96905118     1.00400
C2126       C  0.91981284  0.69824365  0.91086204     1.13300
C2127       C  0.75199486  0.94320531  0.83618617     1.04100
O2128       O  0.69488569  0.89413576  0.92388862    -0.95500
O2129       O  0.75771915  0.83283154  0.94450516    -0.91200
O2130       O  0.81209689  0.82454595  0.98737265    -0.84400
C2131       C  0.77500356  0.81621081  0.97220362     1.10800
O2132       O  0.91453767  0.93255259  0.82352575    -0.97500
Zr2133     Zr  0.90097501  0.90135856  0.88155044     1.88900
O2134       O  0.91989132  0.82571569  0.94693213    -0.74100
O2135       O  0.76242252  0.84209869  0.86723547    -0.53400
O2136       O  0.87445953  0.86579596  0.82992830    -0.98100
O2137       O  0.97981087  0.91252883  0.86953604    -0.55300
O2138       O  0.93653202  0.84517796  0.88930973    -0.74600
C2139       C  0.93885461  0.82252576  0.91543241     0.97700
O2140       O  0.88498502  0.81910655  0.52013069    -0.63500
O2141       O  0.93282076  0.00121594  0.51808736    -0.58300
O2142       O  0.90950932  0.88738045  0.53257415    -0.94900
O2143       O  0.95598199  0.93282444  0.51841525    -0.93400
O2144       O  0.81661828  0.99347085  0.54348595    -0.93700
O2145       O  0.78563878  0.92675572  0.56141398    -0.92500
C2146       C  0.94054778  0.90962744  0.54067460     1.16500
H2147       H  0.84568178  0.67585838  0.97565736     0.32500
H2148       H  0.77506326  0.87929711  0.99142910     0.43300
H2149       H  0.95384239  0.89280451  0.94755292     0.36900
H2150       H  0.82492244  0.92350840  0.85340281     0.33400
H2151       H  0.70656720  0.95141242  0.03232127     0.25100
H2152       H  0.73081526  0.84414325  0.85975910     0.31100
H2153       H  0.90088851  0.85263938  0.82134215     0.37000
H2154       H  0.84532629  0.65070496  0.55321162     0.31400
H2155       H  0.96320580  0.01037937  0.51309293     0.30300
H2156       H  0.99349929  0.97110633  0.92129404     0.32000
H2157       H  0.98785269  0.89577705  0.84969706     0.31000
H2158       H  0.80665657  0.90673692  0.56251348     0.35000
H2159       H  0.91767375  0.81895470  0.52334019     0.27700
H2160       H  0.77214198  0.70237982  0.86078939     0.31900
H2161       H  0.92864485  0.91532245  0.80672281     0.34800
H2162       H  0.91415449  0.68873933  0.51366596     0.27400
H2163       H  0.87302532  0.82678027  0.54430852     0.40300
H2164       H  0.68044276  0.88267173  0.90241586     0.30300
H2165       H  0.70191742  0.92748749  0.99726661     0.37900
H2166       H  0.99568582  0.90353449  0.89153459     0.29800
H2167       H  0.77956057  0.84944649  0.84514208     0.29900
H2168       H  0.81448432  0.02809567  0.83811699     0.30100
C2169       C  0.74521038  0.94211568  0.79455052     0.85600
C2170       C  0.72851881  0.97599061  0.77653936    -0.54700
C2171       C  0.72630871  0.97487923  0.73863096     0.08500
C2172       C  0.74212097  0.93927863  0.72214948     0.19500
C2173       C  0.71460463  0.91282679  0.77940453    -0.55400
C2174       C  0.71317831  0.91099076  0.74150829     0.08600
C2175       C  0.79017534  0.93550501  0.77611192    -0.54900
C2176       C  0.78920163  0.93381634  0.73866133     0.09200
H2177       H  0.71940795  0.99901162  0.79257240     0.13700
H2178       H  0.74086018  0.93825732  0.69153046    -0.00600
H2179       H  0.69668267  0.89439661  0.79709114     0.14000
H2180       H  0.82066541  0.93159892  0.79158378     0.13800
C2181       C  0.44537521  0.94705201  0.62598590     0.85600
C2182       C  0.42532121  0.95336056  0.66442956    -0.54700
C2183       C  0.45502869  0.95151919  0.69251759     0.08500
C2184       C  0.50224937  0.94236671  0.68047705     0.19500
C2185       C  0.48450159  0.97369957  0.62327815    -0.55400
C2186       C  0.51425410  0.97107893  0.65203488     0.08600
C2187       C  0.46775438  0.91053018  0.63004743    -0.54900
C2188       C  0.49742892  0.90820443  0.65839914     0.09200
H2189       H  0.39000428  0.95709526  0.66948764     0.13700
H2190       H  0.52612917  0.94052078  0.70383720    -0.00600
H2191       H  0.48611001  0.66086853  0.60283132     0.14000
H2192       H  0.45995218  0.88761519  0.61338455     0.13800
C2193       C  0.01863405  0.75277881  0.87759923     0.85600
C2194       C  0.03625594  0.74400512  0.91615794    -0.54700
C2195       C  0.00573863  0.74611124  0.94348110     0.08500
C2196       C  0.95914335  0.75601530  0.92996339     0.19500
C2197       C  0.97962129  0.72617347  0.87243447    -0.55400
C2198       C  0.94831204  0.72814416  0.90026647     0.08600
C2199       C  0.99564703  0.78868935  0.88084634    -0.54900
C2200       C  0.96500696  0.79053948  0.90840630     0.09200
H2201       H  0.07105963  0.73814744  0.92161830     0.14500
H2202       H  0.93405143  0.75743541  0.95246916    -0.00600
H2203       H  0.97923809  0.70527268  0.85201415     0.14000
H2204       H  0.00341053  0.81090604  0.86285872     0.13800
Zr2205     Zr  0.14091393  0.81772004  0.61983353     2.17500
O2206       O  0.15570561  0.86805263  0.66019578    -0.52200
O2207       O  0.18281737  0.86268921  0.58257004    -0.75400
O2208       O  0.18639610  0.80210081  0.67480424    -0.82200
O2209       O  0.03768357  0.85350426  0.57759980    -0.84000
O2210       O  0.21736743  0.74762559  0.66772028    -0.79600
O2211       O  0.07414237  0.85364155  0.63232079    -0.91200
O2212       O  0.21940083  0.83087689  0.54003709    -0.77200
O2213       O  0.19335025  0.78227966  0.58663981    -0.86700
O2214       O  0.11766257  0.81965099  0.55660852    -0.86400
O2215       O  0.13297907  0.75774951  0.64299679    -0.73100
O2216       O  0.06601273  0.79376299  0.61773531    -0.85300
Zr2217     Zr  0.09114760  0.70146058  0.54488393     2.26400
Zr2218     Zr  0.18678141  0.72286635  0.61024793     2.06300
Zr2219     Zr  0.04443741  0.79439449  0.55439992     2.10000
Zr2220     Zr  0.16921085  0.78440957  0.52370307     1.78800
O2221       O  0.96860397  0.79569111  0.57813707    -0.94100
O2222       O  0.24264057  0.76780311  0.50122019    -0.41900
O2223       O  0.09619391  0.75992418  0.52001482    -0.78500
O2224       O  0.16566073  0.72569125  0.54654332    -0.97200
O2225       O  0.11266436  0.69887367  0.60800496    -0.90500
O2226       O  0.03745918  0.73545984  0.57732579    -0.93300
C2227       C  0.20914607  0.86026980  0.55450755     1.00400
C2228       C  0.04439180  0.86561656  0.60999768     1.13300
C2229       C  0.20934064  0.77557946  0.68684763     1.04100
O2230       O  0.26601991  0.72796277  0.59691156    -0.95500
O2231       O  0.20406732  0.66710722  0.57747639    -0.91200
O2232       O  0.14988296  0.99209671  0.53463870    -0.84400
C2233       C  0.18690527  0.98373633  0.54982892     1.10800
O2234       O  0.04955213  0.76415793  0.69919902    -0.97500
Zr2235     Zr  0.05977171  0.73440783  0.64009394     1.88900
O2236       O  0.04151203  0.99212686  0.57527857    -0.74100
O2237       O  0.19701692  0.67496962  0.65441015    -0.53400
O2238       O  0.08177148  0.69635305  0.69121399    -0.98100
O2239       O  0.98132904  0.74795195  0.64985871    -0.55300
O2240       O  0.02199607  0.67902799  0.63175808    -0.74600
C2241       C  0.02085993  0.98911778  0.60617332     0.97700
O2242       O  0.07711005  0.65386903  0.00082045    -0.63500
O2243       O  0.02532989  0.83315891  0.50299397    -0.58300
O2244       O  0.05050126  0.72097682  0.49023073    -0.94900
O2245       O  0.00449342  0.76606630  0.50479072    -0.93400
O2246       O  0.14412205  0.82904220  0.47996646    -0.93700
O2247       O  0.17344474  0.76362961  0.46018033    -0.92500
C2248       C  0.01984710  0.74352801  0.98205523     1.16500
H2249       H  0.11680599  0.84349705  0.54707912     0.32500
H2250       H  0.18662262  0.71399129  0.53067187     0.43300
H2251       H  0.00771691  0.72633535  0.57361272     0.36900
H2252       H  0.13619540  0.75556352  0.66923270     0.33400
H2253       H  0.25526005  0.78955391  0.49002936     0.25100
H2254       H  0.22858572  0.67672291  0.66213230     0.31100
H2255       H  0.05352109  0.68699642  0.70153336     0.37000
H2256       H  0.11507917  0.82006745  0.47089766     0.31400
H2257       H  0.99789468  0.84538068  0.51087692     0.30300
H2258       H  0.97066213  0.80875060  0.60172989     0.32000
H2259       H  0.97174346  0.73213071  0.67019997     0.31000
H2260       H  0.15283410  0.74313690  0.45922942     0.35000
H2261       H  0.04432145  0.65311742  0.99790563     0.27700
H2262       H  0.18844866  0.86913051  0.66329932     0.31900
H2263       H  0.02952886  0.74882861  0.71401001     0.34800
H2264       H  0.04859032  0.85181148  0.50288914     0.27400
H2265       H  0.08967128  0.66193399  0.47723173     0.40300
H2266       H  0.28065510  0.71395076  0.61651782     0.30300
H2267       H  0.26052812  0.76400825  0.52384168     0.37900
H2268       H  0.96561393  0.73855757  0.62793665     0.29800
H2269       H  0.17981798  0.68210821  0.67645597     0.29900
H2270       H  0.14395871  0.86119691  0.68475467     0.30100
C2271       C  0.21784697  0.77377422  0.72837456     0.85600
C2272       C  0.23509448  0.80776263  0.74617165    -0.54700
C2273       C  0.23895779  0.80635265  0.78400208     0.08500
C2274       C  0.22453762  0.77044313  0.80059696     0.19500
C2275       C  0.24952430  0.74482642  0.74238840    -0.55400
C2276       C  0.25273978  0.74290730  0.78025145     0.08600
C2277       C  0.17384274  0.76607447  0.74828980    -0.54900
C2278       C  0.17697484  0.76398219  0.78569145     0.09200
H2279       H  0.24312597  0.83114664  0.73005761     0.13700
H2280       H  0.22732374  0.76905145  0.83114604    -0.00600
H2281       H  0.26655560  0.72662133  0.72414315     0.14000
H2282       H  0.14226450  0.76345071  0.73394602     0.13800
Zr2283     Zr  0.32170817  0.88065938  0.87021788     2.17500
O2284       O  0.30489586  0.83103973  0.91120338    -0.52200
O2285       O  0.28130050  0.83542603  0.83260778    -0.75400
O2286       O  0.27558205  0.89658767  0.92455689    -0.82200
O2287       O  0.42481053  0.84445587  0.82829352    -0.84000
O2288       O  0.24515700  0.95127980  0.91765380    -0.79600
O2289       O  0.38792715  0.84411412  0.88282932    -0.91200
O2290       O  0.24346837  0.86740359  0.79090316    -0.77200
O2291       O  0.26922500  0.91651076  0.83743742    -0.86700
O2292       O  0.34439067  0.87889810  0.80691476    -0.86400
O2293       O  0.33036795  0.94052438  0.89315779    -0.73100
O2294       O  0.39691295  0.90394351  0.86820556    -0.85300
Zr2295     Zr  0.37249228  0.99640424  0.79486484     2.26400
Zr2296     Zr  0.27683740  0.97590379  0.86058458     2.06300
Zr2297     Zr  0.41783987  0.90339159  0.80476938     2.10000
Zr2298     Zr  0.29265004  0.91448468  0.77442992     1.78800
O2299       O  0.49352923  0.90485706  0.82887844    -0.94100
O2300       O  0.21891733  0.93296117  0.75434339    -0.41900
O2301       O  0.36610686  0.93806252  0.77051168    -0.78500
O2302       O  0.29757178  0.97306098  0.79692125    -0.97200
O2303       O  0.35133419  0.99918860  0.85814176    -0.90500
O2304       O  0.42597083  0.96217481  0.82739461    -0.93300
C2305       C  0.25481822  0.83792502  0.80466722     1.00400
C2306       C  0.41769348  0.83211893  0.86057427     1.13300
C2307       C  0.25279641  0.92312007  0.93660323     1.04100
O2308       O  0.19764538  0.97130933  0.84692808    -0.95500
O2309       O  0.26121014  0.69874859  0.82711988    -0.91200
O2310       O  0.31501703  0.70606585  0.78339551    -0.84400
C2311       C  0.27832924  0.71477051  0.79885750     1.10800
O2312       O  0.41429607  0.93222191  0.94890612    -0.97500
Zr2313     Zr  0.40391483  0.96327181  0.89036618     1.88900
O2314       O  0.42280004  0.70516268  0.82480670    -0.74100
O2315       O  0.26729225  0.69047013  0.90482505    -0.53400
O2316       O  0.38037920  0.66835551  0.94097583    -0.98100
O2317       O  0.48311808  0.95175509  0.89956821    -0.55300
O2318       O  0.44182246  0.68545256  0.88176726    -0.74600
C2319       C  0.44290211  0.70838117  0.85588727     0.97700
O2320       O  0.38626522  0.71124836  0.75121253    -0.63500
O2321       O  0.43849880  0.86387703  0.75455062    -0.58300
O2322       O  0.41106275  0.97629346  0.73935167    -0.94900
O2323       O  0.45474807  0.92925975  0.75250883    -0.93400
O2324       O  0.31549993  0.87027771  0.72966907    -0.93700
O2325       O  0.28592511  0.93565478  0.71114345    -0.92500
C2326       C  0.44050410  0.95321002  0.73079943     1.16500
H2327       H  0.34531678  0.85520470  0.79712710     0.32500
H2328       H  0.27665359  0.98487119  0.78101648     0.43300
H2329       H  0.45582786  0.97110758  0.82350822     0.36900
H2330       H  0.32681840  0.94255997  0.91932417     0.33400
H2331       H  0.20630194  0.91224947  0.74128132     0.25100
H2332       H  0.23602829  0.68833064  0.91330415     0.31100
H2333       H  0.40791279  0.68038926  0.94941807     0.37000
H2334       H  0.34537997  0.87816967  0.72139713     0.31400
H2335       H  0.46653395  0.85264859  0.76263080     0.30300
H2336       H  0.50049913  0.88003522  0.83517288     0.32000
H2337       H  0.49140388  0.96530677  0.92190986     0.31000
H2338       H  0.30858946  0.95466184  0.70901513     0.35000
H2339       H  0.41982130  0.04623154  0.74996128     0.27700
H2340       H  0.27204110  0.83015130  0.91345966     0.31900
H2341       H  0.43262233  0.94795667  0.96465004     0.34800
H2342       H  0.41606493  0.84458913  0.75499280     0.27400
H2343       H  0.37766633  0.70224852  0.72650633     0.40300
H2344       H  0.18725974  0.95007939  0.86051143     0.30300
H2345       H  0.20129362  0.93456296  0.77738817     0.37900
H2346       H  0.49862482  0.96431114  0.87925229     0.29800
H2347       H  0.28537239  0.68342139  0.92643568     0.29900
H2348       H  0.31581608  0.83807993  0.93593546     0.30100
C2349       C  0.24491803  0.92478114  0.97812359     0.85600
C2350       C  0.22819674  0.89086249  0.49616604    -0.54700
C2351       C  0.22560556  0.89197179  0.53409218     0.08500
C2352       C  0.24119759  0.92776795  0.55057727     0.19500
C2353       C  0.21422966  0.95384105  0.49298294    -0.55400
C2354       C  0.21248302  0.95570442  0.53093455     0.08600
C2355       C  0.28974713  0.93213606  0.49690938    -0.54900
C2356       C  0.28825252  0.93365362  0.53433882     0.09200
H2357       H  0.21868429  0.86773798  0.98026674     0.13700
H2358       H  0.23984836  0.92889099  0.58119275    -0.00600
H2359       H  0.19653747  0.97215226  0.97489537     0.14000
H2360       H  0.32065094  0.93585007  0.48181285     0.13800
C2361       C  0.06410771  0.73221308  0.82116920    -0.22200
C2362       C  0.05819000  0.75485845  0.85140759    -0.10300
C2363       C  0.09236670  0.77958626  0.85978597     0.28600
C2364       C  0.13135558  0.78101635  0.83927840    -0.22200
C2365       C  0.13711646  0.75882418  0.80909158    -0.10300
C2366       C  0.10323686  0.73427037  0.80001425     0.28600
F2367       F  0.10832663  0.71185979  0.77115009    -0.20800
H2368       H  0.03906049  0.71281321  0.81394896     0.17000
H2369       H  0.15655811  0.80045397  0.84636358     0.17000
F2370       F  0.08826265  0.80235402  0.88851619    -0.20800
C2371       C  0.40610729  0.92316072  0.56846388    -0.22200
C2372       C  0.40946069  0.94938917  0.59585366    -0.10300
C2373       C  0.37410826  0.97392412  0.59862810     0.28600
C2374       C  0.33413117  0.96828432  0.57941818    -0.22200
C2375       C  0.32956560  0.93933708  0.55571804    -0.10300
C2376       C  0.36649472  0.91767348  0.54929052     0.28600
F2377       F  0.36373683  0.89015475  0.52539810    -0.20800
H2378       H  0.43354238  0.90588374  0.56226571     0.17000
H2379       H  0.30681021  0.98651551  0.58295339     0.17000
F2380       F  0.37729201  0.00237379  0.62126328    -0.20800
C2381       C  0.59242175  0.75573824  0.97621595    -0.22200
C2382       C  0.63288228  0.77201653  0.96624088    -0.10300
C2383       C  0.63279649  0.79740810  0.93811137     0.28600
C2384       C  0.59373958  0.80431486  0.91856689    -0.22200
C2385       C  0.55449316  0.78438782  0.92495145    -0.10300
C2386       C  0.55345120  0.76232520  0.95637652     0.28600
F2387       F  0.51514655  0.74634419  0.96749828    -0.20800
H2388       H  0.59109815  0.73725132  0.99906222     0.17000
H2389       H  0.59504426  0.82446087  0.89737312     0.17000
F2390       F  0.67026914  0.81578002  0.92959673    -0.20800
C2391       C  0.86921089  0.89379384  0.66982602    -0.22200
C2392       C  0.90853129  0.91363910  0.67596491    -0.10300
C2393       C  0.91000649  0.93524857  0.70762718     0.28600
C2394       C  0.87110797  0.94186037  0.72766716    -0.22200
C2395       C  0.83034539  0.92607391  0.71752774    -0.10300
C2396       C  0.83030075  0.90066670  0.68953817     0.28600
F2397       F  0.79286577  0.88213139  0.68138029    -0.20800
H2398       H  0.86772515  0.87376629  0.64861167     0.17000
H2399       H  0.87270086  0.96009149  0.75063929     0.17000
F2400       F  0.94864451  0.95063142  0.71881902    -0.20800
loop_ 
_geom_bond_atom_site_label_1 
_geom_bond_atom_site_label_2 
_geom_bond_distance 
_geom_bond_site_symmetry_2 
_ccdc_geom_bond_type 
C1            C2   1.541       .  S
C1            C7   1.542       .  S
C1            C5   1.545       .  S
C1          C392   1.537       .  S
C2            H9   1.085       .  S
C2            C3   1.354       .  D
C3            C4   1.528   1_655  S
C3          C146   1.462       .  S
C4            C8   1.530   1_455  S
C4            C6   1.539       .  S
C4           H10   1.112       .  S
C5           H11   1.086       .  S
C5            C6   1.375   1_655  D
C6          C228   1.471       .  S
C7           H12   1.085       .  S
C7            C8   1.364       .  D
C8          C241   1.472   1_655  S
C13          C14   1.539       .  S
C13          C19   1.542       .  S
C13          C17   1.546       .  S
C13         C385   1.537       .  S
C14          H21   1.085       .  S
C14          C15   1.353       .  D
C15          C16   1.526       .  S
C15          C68   1.458       .  S
C16          C20   1.530       .  S
C16          C18   1.540       .  S
C16          H22   1.112       .  S
C17          H23   1.086       .  S
C17          C18   1.376       .  D
C18         C306   1.472       .  S
C19          H24   1.085       .  S
C19          C20   1.363       .  D
C20         C319   1.472       .  S
Zr25         O26   2.441   1_545  S
Zr25         O27   2.491       .  S
Zr25         O28   2.479       .  S
Zr25         O31   2.472       .  S
Zr25         O33   2.400       .  S
Zr25         O34   2.394       .  S
Zr25         O35   2.424       .  S
Zr25         O36   2.418       .  S
O26          H82   0.990       .  S
O26          H90   0.990   1_565  S
O27          C47   1.289       .  A
O28          C49   1.294       .  A
O29         Zr39   2.403       .  S
O29          C48   1.277   1_545  A
O30         Zr38   2.461       .  S
O30          C49   1.291       .  A
O31          C48   1.289   1_545  A
O32         Zr40   2.393       .  S
O32          C47   1.272       .  A
O33         Zr38   2.411       .  S
O33         Zr40   2.390       .  S
O34         Zr39   2.392       .  S
O34         Zr40   2.374       .  S
O34          H69   0.966       .  S
O35         Zr38   2.408       .  S
O35         Zr55   2.365       .  S
O35          H72   0.960       .  S
O36         Zr39   2.382       .  S
O36         Zr55   2.393       .  S
Zr37         O62   2.441       .  S
Zr37         O56   2.443       .  S
Zr37         O64   2.439       .  S
Zr37         O52   2.427       .  S
Zr37         O43   2.394       .  S
Zr37         O44   2.414       .  S
Zr37         O45   2.376       .  S
Zr37         O46   2.382       .  S
Zr38         O57   2.436       .  S
Zr38         O50   2.435       .  S
Zr38         O51   2.483       .  S
Zr38         O44   2.396       .  S
Zr38         O45   2.401       .  S
Zr39         O41   2.436       .  S
Zr39         O63   2.441       .  S
Zr39         O65   2.403       .  S
Zr39         O43   2.390       .  S
Zr39         O46   2.390       .  S
Zr40         O66   2.435       .  S
Zr40         O67   2.435       .  S
Zr40         O42   2.436       .  S
Zr40         O43   2.382       .  S
Zr40         O44   2.374       .  S
O41          H78   0.990       .  S
O42          H73   0.990       .  S
O42          H87   0.991       .  S
O44          H70   0.963       .  S
O45         Zr55   2.389       .  S
O46         Zr55   2.371       .  S
O46          H71   0.966       .  S
C47        C1771   1.487   1_545  S
C48        C1786   1.471       .  S
C49          C91   1.524       .  S
O50          H86   0.990       .  S
O51          C53   1.293       .  A
O52          C53   1.283       .  A
C53         C174   1.485       .  S
O54         Zr55   2.441       .  S
O54          H83   0.990       .  S
Zr55         O58   2.438       .  S
Zr55         O59   2.440       .  S
Zr55         O60   2.397       .  S
O56          C61   1.283       .  A
O57          H74   0.991       .  S
O57          H89   0.990       .  S
O58          H75   0.990       .  S
O59          H79   0.990       .  S
O59          H88   0.989       .  S
O60          C61   1.277       .  A
C61         C188   1.474       .  S
O62          H81   0.989       .  S
O62          H85   0.991       .  S
O63          H77   0.990       .  S
O63          H84   0.990       .  S
O64          C68   1.285       .  A
O65          C68   1.275       .  A
O66          H76   0.990       .  S
O67          H80   0.990       .  S
C91          C92   1.527       .  S
C91          C95   1.536       .  S
C91         C497   1.528       .  S
C92          H99   1.086       .  S
C92         C493   1.377   1_554  D
C93          C94   1.551       .  S
C93         C492   1.377       .  D
C93         C125   1.491       .  S
C94          C98   1.549       .  S
C94          C96   1.540       .  S
C94         H100   1.110       .  S
C95         H101   1.086       .  S
C95         C496   1.375   1_554  D
C96         C495   1.376       .  D
C96         C131   1.479       .  S
C97         C491   1.528       .  S
C97         H502   1.085       .  S
C97          C98   1.359       .  D
C98         C382   1.483       .  S
H102        C497   1.085       .  S
Zr103       O104   2.445       .  S
Zr103       O106   2.474       .  S
Zr103       O905   2.502       .  S
Zr103       O909   2.470       .  S
Zr103       O111   2.400       .  S
Zr103       O112   2.388       .  S
Zr103       O113   2.427       .  S
Zr103       O114   2.419       .  S
O104        H168   0.991       .  S
O104        H960   0.991       .  S
O105      Zr1703   2.506   1_545  S
O105        C125   1.292       .  A
O106        C127   1.293       .  A
O107      Zr1717   2.388   1_545  S
O107        C126   1.276       .  A
O108       Zr116   2.458       .  S
O108        C127   1.290       .  A
O109      Zr1703   2.471   1_545  S
O109        C126   1.289       .  A
O110      Zr1718   2.384       .  S
O110        C125   1.271   1_565  A
O111       Zr116   2.413       .  S
O111       Zr118   2.390       .  S
O112       Zr117   2.393       .  S
O112       Zr118   2.377       .  S
O112        H947   0.965       .  S
O113       Zr116   2.407       .  S
O113       Zr133   2.366       .  S
O113        H150   0.956       .  S
O114       Zr117   2.381       .  S
O114       Zr133   2.398       .  S
Zr115       O540   2.441       .  S
Zr115       O134   2.438       .  S
Zr115       O130   2.413       .  S
Zr115       O542   2.445       .  S
Zr115       O121   2.387       .  S
Zr115       O122   2.416       .  S
Zr115       O123   2.380       .  S
Zr115       O124   2.378       .  S
Zr116       O135   2.436       .  S
Zr116       O128   2.435       .  S
Zr116       O129   2.482       .  S
Zr116       O122   2.394       .  S
Zr116       O123   2.401       .  S
Zr117       O119   2.435       .  S
Zr117       O541   2.439       .  S
Zr117       O907   2.387       .  S
Zr117       O543   2.405       .  S
Zr117       O121   2.385       .  S
Zr117       O124   2.384       .  S
Zr118       O120   2.437       .  S
Zr118       O544   2.437       .  S
Zr118       O545   2.436       .  S
Zr118       O910   2.387       .  S
Zr118       O121   2.381       .  S
Zr118       O122   2.372       .  S
O119        H156   0.990       .  S
O120        H151   0.990       .  S
O120        H165   0.991       .  S
O122        H148   0.963       .  S
O123       Zr133   2.387       .  S
O124       Zr133   2.372       .  S
O124        H149   0.965       .  S
C126        C198   1.466       .  S
C127        C169   1.521       .  S
O128        H164   0.990       .  S
O129        C131   1.293       .  A
O130        C131   1.280       .  A
O132       Zr133   2.442       .  S
O132        H161   0.990       .  S
Zr133       O136   2.437       .  S
Zr133       O137   2.441       .  S
Zr133       O138   2.404       .  S
O134        C139   1.282       .  A
O135        H152   0.991       .  S
O135        H167   0.990       .  S
O136        H153   0.990       .  S
O137        H157   0.990       .  S
O137        H166   0.989       .  S
O138        C139   1.278       .  A
C139        C200   1.472       .  S
O140       Zr515   2.441   1_554  S
O140        H159   0.989       .  S
O140        H163   0.991       .  S
O141       Zr517   2.438   1_554  S
O141        H155   0.991       .  S
O141        H962   0.989       .  S
O142       Zr515   2.446   1_554  S
O142        C146   1.286       .  A
O143       Zr517   2.407   1_554  S
O143        C146   1.276       .  A
O144       Zr518   2.436   1_554  S
O144        H954   0.990       .  S
O145       Zr518   2.436   1_554  S
O145        H158   0.990       .  S
H147       O1712   0.965   1_545  S
H154       O1744   0.990       .  S
H160       O1704   0.991       .  S
H162       O1741   0.989       .  S
C169        C170   1.525       .  S
C169        C175   1.529       .  S
C169        C173   1.537       .  S
C170        H177   1.085       .  S
C170        C171   1.375       .  D
C171        C172   1.553       .  S
C171        C847   1.488       .  S
C172        C176   1.551       .  S
C172        C174   1.544       .  S
C172        H178   1.110       .  S
C173        H179   1.086       .  S
C173        C174   1.374       .  D
C175        H180   1.085       .  S
C175        C176   1.359       .  D
C176        C395   1.485       .  S
C181        C182   1.538       .  S
C181        C187   1.547       .  S
C181        C185   1.547       .  S
C181        C372   1.537       .  S
C182        H189   1.086       .  S
C182        C183   1.355       .  D
C183        C184   1.526       .  S
C183        C326   1.456       .  S
C184        C188   1.527       .  S
C184        C186   1.537       .  S
C184        H190   1.112       .  S
C185        H991   1.086       .  S
C185        C186   1.377       .  D
C186        C848   1.471       .  S
C187        H192   1.083       .  S
C187        C188   1.362       .  D
H191       C1785   1.086       .  S
C193        C194   1.530       .  S
C193        C199   1.534   1_455  S
C193        C197   1.552   1_455  S
C193        C362   1.521       .  S
C194        H201   1.088       .  S
C194        C195   1.351       .  D
C195        C196   1.533   1_455  S
C195        C248   1.464       .  S
C196        C200   1.531       .  S
C196        C198   1.543       .  S
C196        H202   1.112       .  S
C197        H203   1.084       .  S
C197        C198   1.381       .  D
C199        H204   1.087   1_655  S
C199        C200   1.360       .  D
Zr205       O206   2.443       .  S
Zr205       O207   2.502       .  S
Zr205       O208   2.484       .  S
Zr205       O211   2.476       .  S
Zr205       O213   2.399       .  S
Zr205       O214   2.394       .  S
Zr205       O215   2.430       .  S
Zr205       O216   2.419       .  S
O206        H262   0.991       .  S
O206        H270   0.990       .  S
O207        C227   1.291       .  A
O208        C229   1.295       .  A
O209       Zr219   2.397       .  S
O209        C228   1.276       .  A
O210       Zr218   2.464       .  S
O210        C229   1.291       .  A
O211        C228   1.290       .  A
O212       Zr220   2.385       .  S
O212        C227   1.270       .  A
O213       Zr218   2.411       .  S
O213       Zr220   2.393       .  S
O214       Zr219   2.393       .  S
O214       Zr220   2.373       .  S
O214        H249   0.966       .  S
O215       Zr218   2.408       .  S
O215       Zr235   2.366       .  S
O215        H252   0.959       .  S
O216       Zr219   2.384       .  S
O216       Zr235   2.394       .  S
Zr217       O642   2.440   1_545  S
Zr217       O244   2.442   1_554  S
Zr217      O1836   2.444   1_545  S
Zr217      O1832   2.423   1_545  S
Zr217       O223   2.391       .  S
Zr217       O224   2.413       .  S
Zr217       O225   2.377       .  S
Zr217       O226   2.380       .  S
Zr218       O237   2.438       .  S
Zr218       O230   2.434       .  S
Zr218       O231   2.481       .  S
Zr218       O224   2.395       .  S
Zr218       O225   2.400       .  S
Zr219       O221   2.435   1_455  S
Zr219       O243   2.441       .  S
Zr219       O245   2.409       .  S
Zr219       O223   2.388       .  S
Zr219       O226   2.386       .  S
Zr220       O246   2.436   1_554  S
Zr220       O247   2.436   1_554  S
Zr220       O222   2.437       .  S
Zr220       O223   2.380       .  S
Zr220       O224   2.371       .  S
O221        H258   0.990       .  S
O222        H253   0.990   1_554  S
O222        H267   0.990       .  S
O224        H250   0.963       .  S
O225       Zr235   2.389       .  S
O226       Zr235   2.373       .  S
O226        H251   0.965       .  S
C227        C351   1.489       .  S
C229        C271   1.527       .  S
O230        H266   0.990       .  S
O231       C1833   1.293   1_545  A
O232      Zr1017   2.422       .  S
O232        C233   1.282       .  A
C233        C354   1.483       .  S
C233       O1031   1.293       .  A
O234       Zr235   2.442       .  S
O234        H263   0.990       .  S
Zr235       O238   2.438       .  S
Zr235       O239   2.440   1_455  S
Zr235       O240   2.397       .  S
O236      Zr1017   2.442       .  S
O236        C241   1.284       .  A
O237        H254   0.990       .  S
O237        H269   0.990       .  S
O238        H255   0.990       .  S
O239        H259   0.990       .  S
O239        H268   0.989       .  S
O240       C1841   1.277   1_545  A
C241       O1040   1.277       .  A
O242       Zr617   2.439   1_565  S
O242        H261   0.991       .  S
O242        H665   0.989       .  S
O243        H257   0.990   1_455  S
O243        H264   0.990       .  S
O244        C648   1.286       .  A
O245        C648   1.276   1_554  A
O246        H256   0.990       .  S
O247        H260   0.990       .  S
C248        O644   1.287       .  A
C248        O645   1.276       .  A
H265        O642   0.989   1_556  S
C271        C272   1.528       .  S
C271        C277   1.532       .  S
C271        C275   1.540       .  S
C272        H279   1.085       .  S
C272        C273   1.376       .  D
C273        C274   1.545       .  S
C273        C305   1.487       .  S
C274        C278   1.545       .  S
C274        C276   1.537       .  S
C274        H280   1.111       .  S
C275        H281   1.086       .  S
C275        C276   1.376       .  D
C276        C311   1.480       .  S
C277        H282   1.085       .  S
C277        C278   1.361       .  D
C278        C365   1.479       .  S
Zr283       O284   2.442       .  S
Zr283       O285   2.496       .  S
Zr283       O286   2.481       .  S
Zr283       O289   2.471       .  S
Zr283       O291   2.399       .  S
Zr283       O292   2.396       .  S
Zr283       O293   2.427       .  S
Zr283       O294   2.419       .  S
O284        H340   0.990       .  S
O284        H348   0.991       .  S
O285        C305   1.290       .  A
O286        C307   1.295       .  A
O287       Zr297   2.400       .  S
O287        C306   1.276       .  A
O288       Zr296   2.459       .  S
O288        C307   1.289       .  A
O289        C306   1.289       .  A
O290       Zr298   2.385       .  S
O290        C305   1.270       .  A
O291       Zr296   2.410       .  S
O291       Zr298   2.391       .  S
O292       Zr297   2.390       .  S
O292       Zr298   2.376       .  S
O292        H327   0.966       .  S
O293       Zr296   2.406       .  S
O293       Zr313   2.368       .  S
O293        H330   0.957       .  S
O294       Zr297   2.381       .  S
O294       Zr313   2.395       .  S
Zr295      O1120   2.439       .  S
Zr295       O322   2.446       .  S
Zr295      O1114   2.445       .  S
Zr295      O1110   2.419       .  S
Zr295       O301   2.389       .  S
Zr295       O302   2.414       .  S
Zr295       O303   2.379       .  S
Zr295       O304   2.382       .  S
Zr296       O308   2.435       .  S
Zr296      O1115   2.438       .  S
Zr296      O1109   2.484       .  S
Zr296       O302   2.392       .  S
Zr296       O303   2.402       .  S
Zr297       O299   2.435       .  S
Zr297       O321   2.440       .  S
Zr297       O323   2.399       .  S
Zr297       O301   2.388       .  S
Zr297       O304   2.385       .  S
Zr298       O324   2.435       .  S
Zr298       O325   2.436       .  S
Zr298       O300   2.438       .  S
Zr298       O301   2.380       .  S
Zr298       O302   2.369       .  S
O299        H336   0.990       .  S
O300        H331   0.990       .  S
O300        H345   0.990       .  S
O302        H328   0.964       .  S
O303       Zr313   2.391       .  S
O304       Zr313   2.376       .  S
O304        H329   0.966       .  S
C307        C349   1.525       .  S
O308        H344   0.990       .  S
O309      Zr1896   2.482   1_545  S
O309        C311   1.294       .  A
O310      Zr1895   2.418   1_545  S
O310        C311   1.281       .  A
O312       Zr313   2.442       .  S
O312        H341   0.990       .  S
Zr313       O317   2.443       .  S
Zr313      O1116   2.439       .  S
Zr313      O1118   2.396       .  S
O314      Zr1895   2.442   1_545  S
O314        C319   1.283       .  A
O315      Zr1896   2.437   1_545  S
O315        H332   0.991       .  S
O315        H347   0.990       .  S
O316      Zr1913   2.440   1_545  S
O316        H333   0.990       .  S
O317        H337   0.990       .  S
O317        H346   0.990       .  S
O318      Zr1913   2.398   1_545  S
O318        C319   1.277       .  A
O320      Zr1895   2.439   1_545  S
O320        H343   0.992       .  S
O320       H1939   0.988       .  S
O321        H335   0.990       .  S
O321        H342   0.990       .  S
O322        C326   1.286       .  A
O323        C326   1.275       .  A
O324        H334   0.990       .  S
O325        H338   0.990       .  S
H339       O1120   0.988       .  S
C349        C750   1.527       .  S
C349        C755   1.527       .  S
C349        C753   1.538       .  S
C350        C749   1.526       .  S
C350        H757   1.086       .  S
C350        C351   1.377   1_556  D
C351        C352   1.552       .  S
C352        C356   1.546       .  S
C352        C354   1.543       .  S
C352        H358   1.111       .  S
C353        C749   1.538       .  S
C353        H759   1.086       .  S
C353        C354   1.377   1_556  D
C355        C749   1.526       .  S
C355        H360   1.085       .  S
C355        C356   1.357   1_556  D
C356        C375   1.477       .  S
H357        C750   1.085       .  S
H359        C753   1.086       .  S
C361        C362   1.404       .  A
C361        C366   1.404       .  A
C361        H368   1.080       .  S
C362        C363   1.418       .  A
C363        C364   1.387       .  A
C363        F370   1.359       .  S
C364        C365   1.393       .  A
C364        H369   1.083       .  S
C365        C366   1.413       .  A
C366        F367   1.357       .  S
C371        C372   1.409       .  A
C371        C376   1.393       .  A
C371        H378   1.079       .  S
C372        C373   1.418       .  A
C373        C374   1.403       .  A
C373        F380   1.358       .  S
C374        C375   1.399       .  A
C374        H379   1.083       .  S
C375        C376   1.404       .  A
C376        F377   1.358       .  S
C381        C382   1.407       .  A
C381        C386   1.398       .  A
C381        H388   1.083       .  S
C382        C383   1.399       .  A
C383        C384   1.396       .  A
C383        F390   1.355       .  S
C384        C385   1.415       .  A
C384        H389   1.081       .  S
C385        C386   1.410       .  A
C386        F387   1.357       .  S
C391        C392   1.413       .  A
C391        C396   1.396       .  A
C391        H398   1.081       .  S
C392        C393   1.411       .  A
C393        C394   1.400       .  A
C393        F400   1.357       .  S
C394        C395   1.408       .  A
C394        H399   1.083       .  S
C395        C396   1.399       .  A
C396        F397   1.354       .  S
C401        C402   1.540       .  S
C401        C407   1.543       .  S
C401        C405   1.545       .  S
C401        C792   1.536       .  S
C402        H409   1.085       .  S
C402        C403   1.353       .  D
C403        C404   1.528   1_655  S
C403        C546   1.461       .  S
C404        C408   1.531   1_455  S
C404        C406   1.539       .  S
C404        H410   1.112       .  S
C405        H411   1.086       .  S
C405        C406   1.375   1_655  D
C406        C628   1.471       .  S
C407        H412   1.085       .  S
C407        C408   1.365       .  D
C408        C641   1.473   1_655  S
C413        C414   1.540       .  S
C413        C419   1.542       .  S
C413        C417   1.546       .  S
C413        C785   1.537       .  S
C414        H421   1.085       .  S
C414        C415   1.354       .  D
C415        C416   1.526       .  S
C415        C468   1.458       .  S
C416        C420   1.529       .  S
C416        C418   1.539       .  S
C416        H422   1.112       .  S
C417        H423   1.086       .  S
C417        C418   1.376       .  D
C418        C706   1.472       .  S
C419        H424   1.085       .  S
C419        C420   1.364       .  D
C420        C719   1.471       .  S
Zr425       O426   2.440   1_545  S
Zr425       O427   2.492       .  S
Zr425       O428   2.482       .  S
Zr425       O431   2.471       .  S
Zr425       O433   2.399       .  S
Zr425       O434   2.396       .  S
Zr425       O435   2.424       .  S
Zr425       O436   2.418       .  S
O426        H482   0.990       .  S
O426        H490   0.990   1_565  S
O427        C447   1.289       .  A
O428        C449   1.295       .  A
O429       Zr439   2.403       .  S
O429        C448   1.276   1_545  A
O430       Zr438   2.461       .  S
O430        C449   1.291       .  A
O431        C448   1.288   1_545  A
O432       Zr440   2.393       .  S
O432        C447   1.272       .  A
O433       Zr438   2.410       .  S
O433       Zr440   2.390       .  S
O434       Zr439   2.393       .  S
O434       Zr440   2.374       .  S
O434        H469   0.966       .  S
O435       Zr438   2.407       .  S
O435       Zr455   2.367       .  S
O435        H472   0.960       .  S
O436       Zr439   2.382       .  S
O436       Zr455   2.393       .  S
Zr437       O462   2.440       .  S
Zr437       O456   2.447       .  S
Zr437       O464   2.439       .  S
Zr437       O452   2.422       .  S
Zr437       O443   2.394       .  S
Zr437       O444   2.414       .  S
Zr437       O445   2.376       .  S
Zr437       O446   2.380       .  S
Zr438       O457   2.436       .  S
Zr438       O450   2.436       .  S
Zr438       O451   2.484       .  S
Zr438       O444   2.396       .  S
Zr438       O445   2.402       .  S
Zr439       O441   2.437       .  S
Zr439       O463   2.440       .  S
Zr439       O465   2.401       .  S
Zr439       O443   2.391       .  S
Zr439       O446   2.389       .  S
Zr440       O466   2.436       .  S
Zr440       O467   2.437       .  S
Zr440       O442   2.437       .  S
Zr440       O443   2.384       .  S
Zr440       O444   2.373       .  S
O441        H478   0.990       .  S
O442        H473   0.990       .  S
O442        H487   0.991       .  S
O444        H470   0.963       .  S
O445       Zr455   2.388       .  S
O446       Zr455   2.371       .  S
O446        H471   0.966       .  S
C447       C2171   1.487   1_545  S
C448       C2186   1.471       .  S
C449        C491   1.525       .  S
O450        H486   0.990       .  S
O451        C453   1.293       .  A
O452        C453   1.282       .  A
C453        C574   1.483       .  S
O454       Zr455   2.440       .  S
O454        H483   0.990       .  S
Zr455       O458   2.438       .  S
Zr455       O459   2.440       .  S
Zr455       O460   2.398       .  S
O456        C461   1.284       .  A
O457        H474   0.991       .  S
O457        H489   0.990       .  S
O458        H475   0.990       .  S
O459        H479   0.990       .  S
O459        H488   0.989       .  S
O460        C461   1.277       .  A
C461        C588   1.477       .  S
O462        H481   0.989       .  S
O462        H485   0.991       .  S
O463        H477   0.990       .  S
O463        H484   0.990       .  S
O464        C468   1.285       .  A
O465        C468   1.275       .  A
O466        H476   0.990       .  S
O467        H480   0.990       .  S
C491        C492   1.527       .  S
C491        C495   1.537       .  S
C492        H499   1.086       .  S
C493        C494   1.552       .  S
C493        C525   1.493       .  S
C494        C498   1.551       .  S
C494        C496   1.540       .  S
C494        H500   1.110       .  S
C495        H501   1.086       .  S
C496        C531   1.479       .  S
C497        C498   1.359   1_554  D
C498        C782   1.484       .  S
Zr503       O504   2.446       .  S
Zr503      O1305   2.504       .  S
Zr503       O506   2.477       .  S
Zr503      O1309   2.473       .  S
Zr503       O511   2.399       .  S
Zr503       O512   2.388       .  S
Zr503       O513   2.427       .  S
Zr503       O514   2.420       .  S
O504       H1360   0.991       .  S
O504        H568   0.991       .  S
O505      Zr2103   2.507   1_545  S
O505        C525   1.292       .  A
O506        C527   1.293       .  A
O507      Zr2117   2.389   1_545  S
O507        C526   1.276       .  A
O508       Zr516   2.457       .  S
O508        C527   1.290       .  A
O509      Zr2103   2.471   1_545  S
O509        C526   1.290       .  A
O510      Zr2118   2.387       .  S
O510        C525   1.271   1_565  A
O511       Zr516   2.413       .  S
O511       Zr518   2.391       .  S
O512       Zr517   2.394       .  S
O512       Zr518   2.375       .  S
O512       H1347   0.965       .  S
O513       Zr516   2.407       .  S
O513       Zr533   2.365       .  S
O513        H550   0.956       .  S
O514       Zr517   2.382       .  S
O514       Zr533   2.396       .  S
Zr515       O534   2.433       .  S
Zr515       O530   2.416       .  S
Zr515       O521   2.385   1_556  S
Zr515       O522   2.415       .  S
Zr515       O523   2.382       .  S
Zr515       O524   2.379       .  S
Zr516       O535   2.436       .  S
Zr516       O528   2.434       .  S
Zr516       O529   2.480       .  S
Zr516       O522   2.395       .  S
Zr516       O523   2.401       .  S
Zr517       O519   2.436       .  S
Zr517      O1307   2.389       .  S
Zr517       O521   2.384   1_556  S
Zr517       O524   2.383       .  S
Zr518       O520   2.436   1_556  S
Zr518      O1310   2.383       .  S
Zr518       O521   2.379   1_556  S
Zr518       O522   2.370       .  S
O519        H556   0.990       .  S
O520        H551   0.990       .  S
O520        H565   0.991   1_554  S
O522        H548   0.963       .  S
O523       Zr533   2.388       .  S
O524       Zr533   2.372       .  S
O524        H549   0.965       .  S
C526        C598   1.466       .  S
C527        C569   1.521       .  S
O528        H564   0.990       .  S
O529        C531   1.293       .  A
O530        C531   1.281       .  A
O532       Zr533   2.442       .  S
O532        H561   0.990       .  S
Zr533       O536   2.438       .  S
Zr533       O537   2.441       .  S
Zr533       O538   2.400       .  S
O534        C539   1.281       .  A
O535        H552   0.991       .  S
O535        H567   0.990       .  S
O536        H553   0.990       .  S
O537        H557   0.990       .  S
O537        H566   0.989       .  S
O538        C539   1.278       .  A
C539        C600   1.468       .  S
O540        H559   0.989       .  S
O540        H563   0.991       .  S
O541        H555   0.991       .  S
O541       H1362   0.990       .  S
O542        C546   1.286       .  A
O543        C546   1.275       .  A
O544       H1354   0.990       .  S
O545        H558   0.990       .  S
H547       O2112   0.965   1_545  S
H554       O2144   0.990       .  S
H560       O2104   0.991       .  S
H562       O2141   0.989       .  S
C569        C570   1.524       .  S
C569        C575   1.529       .  S
C569        C573   1.537       .  S
C570        H577   1.085       .  S
C570        C571   1.375       .  D
C571        C572   1.553       .  S
C571       C1247   1.488       .  S
C572        C576   1.551       .  S
C572        C574   1.543       .  S
C572        H578   1.110       .  S
C573        H579   1.086       .  S
C573        C574   1.375       .  D
C575        H580   1.084       .  S
C575        C576   1.359       .  D
C576        C795   1.485       .  S
C581        C582   1.537       .  S
C581        C587   1.547       .  S
C581        C585   1.547       .  S
C581        C772   1.538       .  S
C582        H589   1.087       .  S
C582        C583   1.356       .  D
C583        C584   1.526       .  S
C583        C726   1.455       .  S
C584        C588   1.528       .  S
C584        C586   1.537       .  S
C584        H590   1.112       .  S
C585       H1391   1.086       .  S
C585        C586   1.377       .  D
C586       C1248   1.472       .  S
C587        H592   1.082       .  S
C587        C588   1.363       .  D
H591       C2185   1.086       .  S
C593        C594   1.529       .  S
C593        C599   1.532   1_455  S
C593        C597   1.552   1_455  S
C593        C762   1.519       .  S
C594        H601   1.088       .  S
C594        C595   1.351       .  D
C595        C596   1.531   1_455  S
C595        C648   1.461       .  S
C596        C600   1.530       .  S
C596        C598   1.542       .  S
C596        H602   1.112       .  S
C597        H603   1.084       .  S
C597        C598   1.381       .  D
C599        H604   1.087   1_655  S
C599        C600   1.359       .  D
Zr605       O606   2.444       .  S
Zr605       O607   2.505       .  S
Zr605       O608   2.488       .  S
Zr605       O611   2.475       .  S
Zr605       O613   2.401       .  S
Zr605       O614   2.393       .  S
Zr605       O615   2.430       .  S
Zr605       O616   2.422       .  S
O606        H662   0.991       .  S
O606        H670   0.990       .  S
O607        C627   1.292       .  A
O608        C629   1.296       .  A
O609       Zr619   2.398       .  S
O609        C628   1.276       .  A
O610       Zr618   2.457       .  S
O610        C629   1.289       .  A
O611        C628   1.290       .  A
O612       Zr620   2.386       .  S
O612        C627   1.271       .  A
O613       Zr618   2.414       .  S
O613       Zr620   2.393       .  S
O614       Zr619   2.394       .  S
O614       Zr620   2.371       .  S
O614        H649   0.966       .  S
O615       Zr618   2.410       .  S
O615       Zr635   2.367       .  S
O615        H652   0.959       .  S
O616       Zr619   2.386       .  S
O616       Zr635   2.395       .  S
Zr617      O2236   2.444   1_545  S
Zr617       O644   2.446       .  S
Zr617      O2232   2.423   1_545  S
Zr617       O623   2.392       .  S
Zr617       O624   2.414       .  S
Zr617       O625   2.378       .  S
Zr617       O626   2.380       .  S
Zr618       O637   2.438       .  S
Zr618       O630   2.435       .  S
Zr618       O631   2.483       .  S
Zr618       O624   2.394       .  S
Zr618       O625   2.401       .  S
Zr619       O621   2.435   1_455  S
Zr619       O643   2.440       .  S
Zr619       O645   2.411       .  S
Zr619       O623   2.387       .  S
Zr619       O626   2.386       .  S
Zr620       O646   2.436       .  S
Zr620       O647   2.435       .  S
Zr620       O622   2.436       .  S
Zr620       O623   2.381       .  S
Zr620       O624   2.373       .  S
O621        H658   0.990       .  S
O622        H653   0.990       .  S
O622        H667   0.990       .  S
O624        H650   0.963       .  S
O625       Zr635   2.391       .  S
O626       Zr635   2.371       .  S
O626        H651   0.965       .  S
C627        C751   1.492       .  S
C629        C671   1.525       .  S
O630        H666   0.990       .  S
O631       C2233   1.294   1_545  A
O632      Zr1417   2.422       .  S
O632        C633   1.282       .  A
C633        C754   1.481       .  S
C633       O1431   1.293       .  A
O634       Zr635   2.441       .  S
O634        H663   0.990       .  S
Zr635       O638   2.438       .  S
Zr635       O639   2.440   1_455  S
Zr635       O640   2.397       .  S
O636      Zr1417   2.444       .  S
O636        C641   1.284       .  A
O637        H654   0.990       .  S
O637        H669   0.990       .  S
O638        H655   0.990       .  S
O639        H659   0.990       .  S
O639        H668   0.989       .  S
O640       C2241   1.277   1_545  A
C641       O1440   1.277       .  A
O642        H661   0.991   1_554  S
O643        H657   0.990   1_455  S
O643        H664   0.990       .  S
O646        H656   0.990       .  S
O647        H660   0.990       .  S
C671        C672   1.528       .  S
C671        C677   1.531       .  S
C671        C675   1.540       .  S
C672        H679   1.085       .  S
C672        C673   1.376       .  D
C673        C674   1.545       .  S
C673        C705   1.488       .  S
C674        C678   1.545       .  S
C674        C676   1.537       .  S
C674        H680   1.111       .  S
C675        H681   1.086       .  S
C675        C676   1.376       .  D
C676        C711   1.478       .  S
C677        H682   1.086       .  S
C677        C678   1.360       .  D
C678        C765   1.476       .  S
Zr683       O684   2.442       .  S
Zr683       O685   2.497       .  S
Zr683       O686   2.480       .  S
Zr683       O689   2.473       .  S
Zr683       O691   2.401       .  S
Zr683       O692   2.393       .  S
Zr683       O693   2.429       .  S
Zr683       O694   2.421       .  S
O684        H740   0.990       .  S
O684        H748   0.991       .  S
O685        C705   1.291       .  A
O686        C707   1.295       .  A
O687       Zr697   2.400       .  S
O687        C706   1.275       .  A
O688       Zr696   2.457       .  S
O688        C707   1.289       .  A
O689        C706   1.289       .  A
O690       Zr698   2.387       .  S
O690        C705   1.271       .  A
O691       Zr696   2.411       .  S
O691       Zr698   2.389       .  S
O692       Zr697   2.390       .  S
O692       Zr698   2.374       .  S
O692        H727   0.966       .  S
O693       Zr696   2.406       .  S
O693       Zr713   2.368       .  S
O693        H730   0.957       .  S
O694       Zr697   2.380       .  S
O694       Zr713   2.396       .  S
Zr695      O1520   2.440       .  S
Zr695      O1514   2.442       .  S
Zr695       O722   2.444       .  S
Zr695      O1510   2.419       .  S
Zr695       O701   2.388       .  S
Zr695       O702   2.414       .  S
Zr695       O703   2.380       .  S
Zr695       O704   2.383       .  S
Zr696      O1515   2.436       .  S
Zr696       O708   2.435       .  S
Zr696      O1509   2.482       .  S
Zr696       O702   2.389       .  S
Zr696       O703   2.401       .  S
Zr697       O699   2.434       .  S
Zr697       O721   2.439       .  S
Zr697       O723   2.398       .  S
Zr697       O701   2.386       .  S
Zr697       O704   2.385       .  S
Zr698       O724   2.435       .  S
Zr698       O725   2.436       .  S
Zr698       O700   2.438       .  S
Zr698       O701   2.378       .  S
Zr698       O702   2.369       .  S
O699        H736   0.990       .  S
O700        H731   0.990       .  S
O700        H745   0.990       .  S
O702        H728   0.964       .  S
O703       Zr713   2.393       .  S
O704       Zr713   2.376       .  S
O704        H729   0.967       .  S
C707        C749   1.523       .  S
O708        H744   0.990       .  S
O709      Zr2296   2.479   1_545  S
O709        C711   1.293       .  A
O710      Zr2295   2.417   1_545  S
O710        C711   1.281       .  A
O712       Zr713   2.443       .  S
O712        H741   0.990       .  S
Zr713      O1516   2.439       .  S
Zr713       O717   2.442       .  S
Zr713      O1518   2.400       .  S
O714      Zr2295   2.443   1_545  S
O714        C719   1.284       .  A
O715      Zr2296   2.437   1_545  S
O715        H732   0.991       .  S
O715        H747   0.990       .  S
O716      Zr2313   2.439       .  S
O716        H733   0.990   1_565  S
O717        H737   0.990       .  S
O717        H746   0.990       .  S
O718      Zr2313   2.397   1_545  S
O718        C719   1.277       .  A
O720      Zr2295   2.440   1_545  S
O720       H2339   0.988       .  S
O720        H743   0.992       .  S
O721        H735   0.989       .  S
O721        H742   0.990       .  S
O722        C726   1.285       .  A
O723        C726   1.275       .  A
O724        H734   0.990       .  S
O725        H738   0.990       .  S
H739       O1520   0.988       .  S
C750        C751   1.378       .  D
C751        C752   1.551       .  S
C752        C756   1.546       .  S
C752        C754   1.542       .  S
C752        H758   1.111       .  S
C753        C754   1.377       .  D
C755        H760   1.086       .  S
C755        C756   1.357       .  D
C756        C775   1.478       .  S
C761        C762   1.404       .  A
C761        C766   1.403       .  A
C761        H768   1.080       .  S
C762        C763   1.418       .  A
C763        C764   1.386       .  A
C763        F770   1.359       .  S
C764        C765   1.391       .  A
C764        H769   1.084       .  S
C765        C766   1.413       .  A
C766        F767   1.357       .  S
C771        C772   1.409       .  A
C771        C776   1.393       .  A
C771        H778   1.079       .  S
C772        C773   1.418       .  A
C773        C774   1.403       .  A
C773        F780   1.358       .  S
C774        C775   1.399       .  A
C774        H779   1.083       .  S
C775        C776   1.404       .  A
C776        F777   1.358       .  S
C781        C782   1.407       .  A
C781        C786   1.398       .  A
C781        H788   1.083   1_556  S
C782        C783   1.399       .  A
C783        C784   1.396       .  A
C783        F790   1.354       .  S
C784        C785   1.414       .  A
C784        H789   1.081       .  S
C785        C786   1.411       .  A
C786        F787   1.357       .  S
C791        C792   1.414       .  A
C791        C796   1.395       .  A
C791        H798   1.081       .  S
C792        C793   1.410       .  A
C793        C794   1.399       .  A
C793        F800   1.357       .  S
C794        C795   1.408       .  A
C794        H799   1.083       .  S
C795        C796   1.399       .  A
C796        F797   1.354       .  S
C801        C802   1.540       .  S
C801        C807   1.542       .  S
C801        C805   1.546       .  S
C801       C1192   1.535       .  S
C802        H809   1.085       .  S
C802        C803   1.353       .  D
C803        C804   1.528   1_655  S
C803        C946   1.460       .  S
C804        C808   1.530   1_455  S
C804        C806   1.539       .  S
C804        H810   1.112       .  S
C805        H811   1.086       .  S
C805        C806   1.376   1_655  D
C806       C1028   1.471       .  S
C807        H812   1.085       .  S
C807        C808   1.364       .  D
C808       C1041   1.472   1_655  S
C813        C814   1.539       .  S
C813        C819   1.543       .  S
C813        C817   1.545       .  S
C813       C1185   1.536       .  S
C814        H821   1.085       .  S
C814        C815   1.353       .  D
C815        C816   1.527       .  S
C815        C868   1.458       .  S
C816        C820   1.529       .  S
C816        C818   1.540       .  S
C816        H822   1.112       .  S
C817        H823   1.086       .  S
C817        C818   1.376       .  D
C818       C1106   1.469       .  S
C819        H824   1.085       .  S
C819        C820   1.364       .  D
C820       C1119   1.472       .  S
Zr825       O826   2.441       .  S
Zr825       O827   2.493       .  S
Zr825       O828   2.481       .  S
Zr825       O831   2.471       .  S
Zr825       O833   2.399       .  S
Zr825       O834   2.396       .  S
Zr825       O835   2.423       .  S
Zr825       O836   2.418       .  S
O826        H882   0.990       .  S
O826        H890   0.990       .  S
O827        C847   1.290       .  A
O828        C849   1.295       .  A
O829       Zr839   2.403       .  S
O829        C848   1.277       .  A
O830       Zr838   2.460       .  S
O830        C849   1.291       .  A
O831        C848   1.289       .  A
O832       Zr840   2.392       .  S
O832        C847   1.273       .  A
O833       Zr838   2.411       .  S
O833       Zr840   2.391       .  S
O834       Zr839   2.393       .  S
O834       Zr840   2.374       .  S
O834        H869   0.966       .  S
O835       Zr838   2.409       .  S
O835       Zr855   2.369       .  S
O835        H872   0.960       .  S
O836       Zr839   2.382       .  S
O836       Zr855   2.392       .  S
Zr837       O862   2.441       .  S
Zr837       O856   2.444       .  S
Zr837       O864   2.439       .  S
Zr837       O852   2.423       .  S
Zr837       O843   2.396       .  S
Zr837       O844   2.413       .  S
Zr837       O845   2.376       .  S
Zr837       O846   2.379       .  S
Zr838       O857   2.437       .  S
Zr838       O850   2.436       .  S
Zr838       O851   2.482       .  S
Zr838       O844   2.396       .  S
Zr838       O845   2.403       .  S
Zr839       O841   2.436       .  S
Zr839       O863   2.441       .  S
Zr839       O865   2.403       .  S
Zr839       O843   2.392       .  S
Zr839       O846   2.389       .  S
Zr840       O866   2.437       .  S
Zr840       O867   2.437       .  S
Zr840       O842   2.436       .  S
Zr840       O843   2.383       .  S
Zr840       O844   2.374       .  S
O841        H878   0.990       .  S
O842        H873   0.990       .  S
O842        H887   0.990       .  S
O844        H870   0.963       .  S
O845       Zr855   2.389       .  S
O846       Zr855   2.370       .  S
O846        H871   0.966       .  S
C849        C891   1.524       .  S
O850        H886   0.990       .  S
O851        C853   1.293       .  A
O852        C853   1.282       .  A
C853        C974   1.483       .  S
O854       Zr855   2.441       .  S
O854        H883   0.990       .  S
Zr855       O858   2.436       .  S
Zr855       O859   2.442       .  S
Zr855       O860   2.399       .  S
O856        C861   1.283       .  A
O857        H874   0.991       .  S
O857        H889   0.990       .  S
O858        H875   0.990       .  S
O859        H879   0.990       .  S
O859        H888   0.989       .  S
O860        C861   1.277       .  A
C861        C988   1.476       .  S
O862        H881   0.989       .  S
O862        H885   0.991       .  S
O863        H877   0.990       .  S
O863        H884   0.990       .  S
O864        C868   1.285       .  A
O865        C868   1.275       .  A
O866        H876   0.990       .  S
O867        H880   0.990       .  S
C891        C892   1.526       .  S
C891       C1297   1.528       .  S
C891        C895   1.536       .  S
C892        H899   1.086       .  S
C892       C1293   1.377   1_554  D
C893        C894   1.551       .  S
C893       C1292   1.377       .  D
C893        C925   1.490       .  S
C894        C898   1.549       .  S
C894        C896   1.540       .  S
C894        H900   1.110       .  S
C895        H901   1.086       .  S
C895       C1296   1.375   1_554  D
C896       C1295   1.376       .  D
C896        C931   1.481       .  S
C897       C1291   1.529       .  S
C897       H1302   1.085       .  S
C897        C898   1.360       .  D
C898       C1182   1.483       .  S
H902       C1297   1.085       .  S
Zr903       O904   2.445       .  S
Zr903      O1705   2.505       .  S
Zr903       O906   2.479       .  S
Zr903      O1709   2.473       .  S
Zr903       O911   2.401       .  S
Zr903       O912   2.388       .  S
Zr903       O913   2.427       .  S
Zr903       O914   2.420       .  S
O904       H1760   0.991       .  S
O904        H968   0.991       .  S
O905        C925   1.291       .  A
O906        C927   1.294       .  A
O907        C926   1.276       .  A
O908       Zr916   2.457       .  S
O908        C927   1.290       .  A
O909        C926   1.289       .  A
O910        C925   1.271       .  A
O911       Zr916   2.414       .  S
O911       Zr918   2.391       .  S
O912       Zr917   2.393       .  S
O912       Zr918   2.376       .  S
O912       H1747   0.965       .  S
O913       Zr916   2.407       .  S
O913       Zr933   2.365       .  S
O913        H950   0.956       .  S
O914       Zr917   2.381       .  S
O914       Zr933   2.397       .  S
Zr915      O1340   2.441       .  S
Zr915       O934   2.438       .  S
Zr915      O1342   2.447       .  S
Zr915       O930   2.414       .  S
Zr915       O921   2.385       .  S
Zr915       O922   2.416       .  S
Zr915       O923   2.381       .  S
Zr915       O924   2.377       .  S
Zr916       O935   2.436       .  S
Zr916       O928   2.434       .  S
Zr916       O929   2.484       .  S
Zr916       O922   2.394       .  S
Zr916       O923   2.400       .  S
Zr917       O919   2.435       .  S
Zr917      O1341   2.438       .  S
Zr917      O1707   2.387       .  S
Zr917      O1343   2.401       .  S
Zr917       O921   2.384       .  S
Zr917       O924   2.383       .  S
Zr918      O1344   2.438       .  S
Zr918      O1345   2.437       .  S
Zr918       O920   2.437       .  S
Zr918      O1710   2.388       .  S
Zr918       O921   2.379       .  S
Zr918       O922   2.373       .  S
O919        H956   0.990       .  S
O920        H951   0.990       .  S
O920        H965   0.991       .  S
O922        H948   0.963       .  S
O923       Zr933   2.387       .  S
O924       Zr933   2.373       .  S
O924        H949   0.965       .  S
C926        C998   1.465       .  S
C927        C969   1.522       .  S
O928        H964   0.990       .  S
O929        C931   1.294       .  A
O930        C931   1.280       .  A
O932       Zr933   2.442       .  S
O932        H961   0.990       .  S
Zr933       O936   2.438       .  S
Zr933       O937   2.442       .  S
Zr933       O938   2.400       .  S
O934        C939   1.282       .  A
O935        H952   0.991       .  S
O935        H967   0.990       .  S
O936        H953   0.990       .  S
O937        H957   0.990       .  S
O937        H966   0.990       .  S
O938        C939   1.278       .  A
C939       C1000   1.470       .  S
O940      Zr1315   2.441   1_554  S
O940        H959   0.989       .  S
O940        H963   0.991       .  S
O941      Zr1317   2.439   1_554  S
O941        H955   0.991       .  S
O941       H1762   0.989       .  S
O942      Zr1315   2.447   1_554  S
O942        C946   1.287       .  A
O943      Zr1317   2.401   1_554  S
O943        C946   1.275       .  A
O944      Zr1318   2.438   1_554  S
O944       H1754   0.990       .  S
O945      Zr1318   2.437   1_554  S
O945        H958   0.990       .  S
C969        C970   1.525       .  S
C969        C975   1.529       .  S
C969        C973   1.537       .  S
C970        H977   1.085       .  S
C970        C971   1.375       .  D
C971        C972   1.552       .  S
C971       C1647   1.487       .  S
C972        C976   1.549       .  S
C972        C974   1.542       .  S
C972        H978   1.111       .  S
C973        H979   1.086       .  S
C973        C974   1.375       .  D
C975        H980   1.085       .  S
C975        C976   1.359       .  D
C976       C1195   1.482       .  S
C981        C982   1.538       .  S
C981        C987   1.546       .  S
C981        C985   1.547       .  S
C981       C1172   1.537       .  S
C982        H989   1.086       .  S
C982        C983   1.355       .  D
C983        C984   1.526       .  S
C983       C1126   1.456       .  S
C984        C988   1.529       .  S
C984        C986   1.537       .  S
C984        H990   1.112       .  S
C985       H1791   1.086       .  S
C985        C986   1.377       .  D
C986       C1648   1.472       .  S
C987        H992   1.082       .  S
C987        C988   1.361       .  D
C993        C994   1.529       .  S
C993        C999   1.534   1_455  S
C993        C997   1.551   1_455  S
C993       C1162   1.521       .  S
C994       H1001   1.088       .  S
C994        C995   1.351       .  D
C995        C996   1.531   1_455  S
C995       C1048   1.461       .  S
C996       C1000   1.529       .  S
C996        C998   1.542       .  S
C996       H1002   1.112       .  S
C997       H1003   1.084       .  S
C997        C998   1.381       .  D
C999       H1004   1.087   1_655  S
C999       C1000   1.360       .  D
Zr1005     O1006   2.443       .  S
Zr1005     O1007   2.504       .  S
Zr1005     O1008   2.485       .  S
Zr1005     O1011   2.476       .  S
Zr1005     O1013   2.400       .  S
Zr1005     O1014   2.394       .  S
Zr1005     O1015   2.430       .  S
Zr1005     O1016   2.421       .  S
O1006      H1062   0.991       .  S
O1006      H1070   0.990       .  S
O1007      C1027   1.291       .  A
O1008      C1029   1.296       .  A
O1009     Zr1019   2.398       .  S
O1009      C1028   1.276       .  A
O1010     Zr1018   2.461       .  S
O1010      C1029   1.291       .  A
O1011      C1028   1.290       .  A
O1012     Zr1020   2.388       .  S
O1012      C1027   1.271       .  A
O1013     Zr1018   2.413       .  S
O1013     Zr1020   2.392       .  S
O1014     Zr1019   2.395       .  S
O1014     Zr1020   2.374       .  S
O1014      H1049   0.966       .  S
O1015     Zr1018   2.409       .  S
O1015     Zr1035   2.366       .  S
O1015      H1052   0.959       .  S
O1016     Zr1019   2.385       .  S
O1016     Zr1035   2.395       .  S
Zr1017     O1442   2.439       .  S
Zr1017     O1044   2.444   1_554  S
Zr1017     O1023   2.391       .  S
Zr1017     O1024   2.413       .  S
Zr1017     O1025   2.378       .  S
Zr1017     O1026   2.379       .  S
Zr1018     O1037   2.437       .  S
Zr1018     O1030   2.434       .  S
Zr1018     O1031   2.483       .  S
Zr1018     O1024   2.395       .  S
Zr1018     O1025   2.400       .  S
Zr1019     O1021   2.437   1_455  S
Zr1019     O1043   2.439       .  S
Zr1019     O1045   2.409       .  S
Zr1019     O1023   2.388       .  S
Zr1019     O1026   2.385       .  S
Zr1020     O1046   2.437   1_554  S
Zr1020     O1047   2.436   1_554  S
Zr1020     O1022   2.438       .  S
Zr1020     O1023   2.381       .  S
Zr1020     O1024   2.374       .  S
O1021      H1058   0.990       .  S
O1022      H1053   0.990   1_554  S
O1022      H1067   0.990       .  S
O1024      H1050   0.963       .  S
O1025     Zr1035   2.390       .  S
O1026     Zr1035   2.370       .  S
O1026      H1051   0.965       .  S
C1027      C1151   1.491       .  S
C1029      C1071   1.526       .  S
O1030      H1066   0.990       .  S
O1032     Zr1817   2.422       .  S
O1032      C1033   1.282       .  A
C1033      C1154   1.482       .  S
C1033      O1831   1.294       .  A
O1034     Zr1035   2.441       .  S
O1034      H1063   0.990       .  S
Zr1035     O1038   2.439       .  S
Zr1035     O1039   2.440   1_455  S
Zr1035     O1040   2.397       .  S
O1036     Zr1817   2.443       .  S
O1036      C1041   1.284       .  A
O1037      H1054   0.990       .  S
O1037      H1069   0.990       .  S
O1038      H1055   0.990       .  S
O1039      H1059   0.990       .  S
O1039      H1068   0.989       .  S
C1041      O1840   1.277       .  A
O1042     Zr1417   2.441       .  S
O1042      H1061   0.991       .  S
O1042      H1465   0.989       .  S
O1043      H1057   0.990   1_455  S
O1043      H1064   0.990       .  S
O1044      C1448   1.286       .  A
O1045      C1448   1.276   1_554  A
O1046      H1056   0.990       .  S
O1047      H1060   0.990       .  S
C1048      O1444   1.286       .  A
C1048      O1445   1.276       .  A
H1065      O1442   0.989   1_556  S
C1071      C1072   1.528       .  S
C1071      C1077   1.532       .  S
C1071      C1075   1.540       .  S
C1072      H1079   1.085       .  S
C1072      C1073   1.376       .  D
C1073      C1074   1.546       .  S
C1073      C1105   1.487       .  S
C1074      C1078   1.546       .  S
C1074      C1076   1.538       .  S
C1074      H1080   1.111       .  S
C1075      H1081   1.086       .  S
C1075      C1076   1.376       .  D
C1076      C1111   1.481       .  S
C1077      H1082   1.085       .  S
C1077      C1078   1.361       .  D
C1078      C1165   1.479       .  S
Zr1083     O1084   2.442       .  S
Zr1083     O1085   2.497       .  S
Zr1083     O1086   2.482       .  S
Zr1083     O1089   2.469       .  S
Zr1083     O1091   2.398       .  S
Zr1083     O1092   2.394       .  S
Zr1083     O1093   2.427       .  S
Zr1083     O1094   2.420       .  S
O1084      H1140   0.990       .  S
O1084      H1148   0.991       .  S
O1085      C1105   1.290       .  A
O1086      C1107   1.295       .  A
O1087     Zr1097   2.396       .  S
O1087      C1106   1.275       .  A
O1088     Zr1096   2.457       .  S
O1088      C1107   1.289       .  A
O1089      C1106   1.289       .  A
O1090     Zr1098   2.384       .  S
O1090      C1105   1.271       .  A
O1091     Zr1096   2.411       .  S
O1091     Zr1098   2.390       .  S
O1092     Zr1097   2.389       .  S
O1092     Zr1098   2.375       .  S
O1092      H1127   0.966       .  S
O1093     Zr1096   2.407       .  S
O1093     Zr1113   2.368       .  S
O1093      H1130   0.957       .  S
O1094     Zr1097   2.382       .  S
O1094     Zr1113   2.396       .  S
Zr1095     O1920   2.440       .  S
Zr1095     O1914   2.440       .  S
Zr1095     O1122   2.446       .  S
Zr1095     O1910   2.414       .  S
Zr1095     O1101   2.387       .  S
Zr1095     O1102   2.413       .  S
Zr1095     O1103   2.382       .  S
Zr1095     O1104   2.381       .  S
Zr1096     O1915   2.437       .  S
Zr1096     O1108   2.435       .  S
Zr1096     O1909   2.481       .  S
Zr1096     O1102   2.392       .  S
Zr1096     O1103   2.402       .  S
Zr1097     O1099   2.434       .  S
Zr1097     O1121   2.440       .  S
Zr1097     O1123   2.397       .  S
Zr1097     O1101   2.388       .  S
Zr1097     O1104   2.384       .  S
Zr1098     O1124   2.435       .  S
Zr1098     O1125   2.436       .  S
Zr1098     O1100   2.438       .  S
Zr1098     O1101   2.380       .  S
Zr1098     O1102   2.368       .  S
O1099      H1136   0.990       .  S
O1100      H1131   0.990       .  S
O1100      H1145   0.990       .  S
O1102      H1128   0.964       .  S
O1103     Zr1113   2.392       .  S
O1104     Zr1113   2.376       .  S
O1104      H1129   0.967       .  S
C1107      C1149   1.525       .  S
O1108      H1144   0.990       .  S
O1109      C1111   1.294       .  A
O1110      C1111   1.281       .  A
O1112     Zr1113   2.444       .  S
O1112      H1141   0.990       .  S
Zr1113     O1916   2.439       .  S
Zr1113     O1117   2.443       .  S
Zr1113     O1918   2.397       .  S
O1114      C1119   1.284       .  A
O1115      H1132   0.991       .  S
O1115      H1147   0.990       .  S
O1116      H1133   0.990       .  S
O1117      H1137   0.990       .  S
O1117      H1146   0.990       .  S
O1118      C1119   1.276       .  A
O1120      H1143   0.992       .  S
O1121      H1135   0.990       .  S
O1121      H1142   0.990       .  S
O1122      C1126   1.286       .  A
O1123      C1126   1.275       .  A
O1124      H1134   0.990       .  S
O1125      H1138   0.990       .  S
H1139      O1920   0.988       .  S
C1149      C1550   1.527       .  S
C1149      C1555   1.527       .  S
C1149      C1553   1.539       .  S
C1150      C1549   1.527       .  S
C1150      H1557   1.085       .  S
C1150      C1151   1.377   1_556  D
C1151      C1152   1.551       .  S
C1152      C1156   1.546       .  S
C1152      C1154   1.542       .  S
C1152      H1158   1.111       .  S
C1153      C1549   1.539       .  S
C1153      H1559   1.086       .  S
C1153      C1154   1.378   1_556  D
C1155      C1549   1.527       .  S
C1155      H1160   1.085       .  S
C1155      C1156   1.358   1_556  D
C1156      C1175   1.477       .  S
H1157      C1550   1.086       .  S
H1159      C1553   1.086       .  S
C1161      C1162   1.404       .  A
C1161      C1166   1.404       .  A
C1161      H1168   1.080       .  S
C1162      C1163   1.418       .  A
C1163      C1164   1.387       .  A
C1163      F1170   1.359       .  S
C1164      C1165   1.392       .  A
C1164      H1169   1.083       .  S
C1165      C1166   1.413       .  A
C1166      F1167   1.357       .  S
C1171      C1172   1.409       .  A
C1171      C1176   1.392       .  A
C1171      H1178   1.079       .  S
C1172      C1173   1.418       .  A
C1173      C1174   1.403       .  A
C1173      F1180   1.358       .  S
C1174      C1175   1.399       .  A
C1174      H1179   1.083       .  S
C1175      C1176   1.404       .  A
C1176      F1177   1.358       .  S
C1181      C1182   1.406       .  A
C1181      C1186   1.398       .  A
C1181      H1188   1.083       .  S
C1182      C1183   1.399       .  A
C1183      C1184   1.396       .  A
C1183      F1190   1.354       .  S
C1184      C1185   1.414       .  A
C1184      H1189   1.081       .  S
C1185      C1186   1.410       .  A
C1186      F1187   1.357       .  S
C1191      C1192   1.414       .  A
C1191      C1196   1.395       .  A
C1191      H1198   1.081       .  S
C1192      C1193   1.411       .  A
C1193      C1194   1.398       .  A
C1193      F1200   1.357       .  S
C1194      C1195   1.407       .  A
C1194      H1199   1.083       .  S
C1195      C1196   1.399       .  A
C1196      F1197   1.355       .  S
C1201      C1202   1.541       .  S
C1201      C1207   1.543       .  S
C1201      C1205   1.545       .  S
C1201      C1592   1.536       .  S
C1202      H1209   1.085       .  S
C1202      C1203   1.353       .  D
C1203      C1204   1.527   1_655  S
C1203      C1346   1.460       .  S
C1204      C1208   1.530   1_455  S
C1204      C1206   1.539       .  S
C1204      H1210   1.112       .  S
C1205      H1211   1.086       .  S
C1205      C1206   1.375   1_655  D
C1206      C1428   1.470       .  S
C1207      H1212   1.085       .  S
C1207      C1208   1.365       .  D
C1208      C1441   1.472   1_655  S
C1213      C1214   1.539       .  S
C1213      C1219   1.543       .  S
C1213      C1217   1.545       .  S
C1213      C1585   1.536       .  S
C1214      H1221   1.085       .  S
C1214      C1215   1.354       .  D
C1215      C1216   1.526       .  S
C1215      C1268   1.459       .  S
C1216      C1220   1.531       .  S
C1216      C1218   1.540       .  S
C1216      H1222   1.112       .  S
C1217      H1223   1.086       .  S
C1217      C1218   1.376       .  D
C1218      C1506   1.472       .  S
C1219      H1224   1.085       .  S
C1219      C1220   1.363       .  D
C1220      C1519   1.473       .  S
Zr1225     O1226   2.441       .  S
Zr1225     O1227   2.493       .  S
Zr1225     O1228   2.481       .  S
Zr1225     O1231   2.473       .  S
Zr1225     O1233   2.400       .  S
Zr1225     O1234   2.395       .  S
Zr1225     O1235   2.423       .  S
Zr1225     O1236   2.418       .  S
O1226      H1282   0.990       .  S
O1226      H1290   0.990       .  S
O1227      C1247   1.290       .  A
O1228      C1249   1.295       .  A
O1229     Zr1239   2.404       .  S
O1229      C1248   1.276       .  A
O1230     Zr1238   2.464       .  S
O1230      C1249   1.292       .  A
O1231      C1248   1.288       .  A
O1232     Zr1240   2.391       .  S
O1232      C1247   1.272       .  A
O1233     Zr1238   2.409       .  S
O1233     Zr1240   2.390       .  S
O1234     Zr1239   2.391       .  S
O1234     Zr1240   2.374       .  S
O1234      H1269   0.966       .  S
O1235     Zr1238   2.407       .  S
O1235     Zr1255   2.366       .  S
O1235      H1272   0.960       .  S
O1236     Zr1239   2.383       .  S
O1236     Zr1255   2.394       .  S
Zr1237     O1262   2.440       .  S
Zr1237     O1256   2.442       .  S
Zr1237     O1264   2.438       .  S
Zr1237     O1252   2.425       .  S
Zr1237     O1243   2.394       .  S
Zr1237     O1244   2.413       .  S
Zr1237     O1245   2.376       .  S
Zr1237     O1246   2.379       .  S
Zr1238     O1257   2.434       .  S
Zr1238     O1250   2.437       .  S
Zr1238     O1251   2.483       .  S
Zr1238     O1244   2.398       .  S
Zr1238     O1245   2.403       .  S
Zr1239     O1241   2.436       .  S
Zr1239     O1263   2.440       .  S
Zr1239     O1265   2.403       .  S
Zr1239     O1243   2.391       .  S
Zr1239     O1246   2.390       .  S
Zr1240     O1266   2.437       .  S
Zr1240     O1267   2.438       .  S
Zr1240     O1242   2.436       .  S
Zr1240     O1243   2.382       .  S
Zr1240     O1244   2.373       .  S
O1241      H1278   0.990       .  S
O1242      H1273   0.990       .  S
O1242      H1287   0.990       .  S
O1244      H1270   0.963       .  S
O1245     Zr1255   2.388       .  S
O1246     Zr1255   2.370       .  S
O1246      H1271   0.966       .  S
C1249      C1291   1.526       .  S
O1250      H1286   0.990       .  S
O1251      C1253   1.294       .  A
O1252      C1253   1.282       .  A
C1253      C1374   1.484       .  S
O1254     Zr1255   2.440       .  S
O1254      H1283   0.990       .  S
Zr1255     O1258   2.439       .  S
Zr1255     O1259   2.440       .  S
Zr1255     O1260   2.398       .  S
O1256      C1261   1.283       .  A
O1257      H1274   0.991       .  S
O1257      H1289   0.990       .  S
O1258      H1275   0.990       .  S
O1259      H1279   0.990       .  S
O1259      H1288   0.989       .  S
O1260      C1261   1.277       .  A
C1261      C1388   1.474       .  S
O1262      H1281   0.989       .  S
O1262      H1285   0.991       .  S
O1263      H1277   0.990       .  S
O1263      H1284   0.991       .  S
O1264      C1268   1.285       .  A
O1265      C1268   1.276       .  A
O1266      H1276   0.990       .  S
O1267      H1280   0.990       .  S
C1291      C1292   1.527       .  S
C1291      C1295   1.538       .  S
C1292      H1299   1.085       .  S
C1293      C1294   1.551       .  S
C1293      C1325   1.490       .  S
C1294      C1298   1.550       .  S
C1294      C1296   1.541       .  S
C1294      H1300   1.110       .  S
C1295      H1301   1.086       .  S
C1296      C1331   1.479       .  S
C1297      C1298   1.360   1_554  D
C1298      C1582   1.484       .  S
Zr1303     O1304   2.445       .  S
Zr1303     O2105   2.501       .  S
Zr1303     O1306   2.478       .  S
Zr1303     O2109   2.472       .  S
Zr1303     O1311   2.399       .  S
Zr1303     O1312   2.388       .  S
Zr1303     O1313   2.426       .  S
Zr1303     O1314   2.419       .  S
O1304      H2160   0.991       .  S
O1304      H1368   0.991       .  S
O1305      C1325   1.292       .  A
O1306      C1327   1.293       .  A
O1307      C1326   1.276       .  A
O1308     Zr1316   2.457       .  S
O1308      C1327   1.289       .  A
O1309      C1326   1.290       .  A
O1310      C1325   1.271       .  A
O1311     Zr1316   2.412       .  S
O1311     Zr1318   2.391       .  S
O1312     Zr1317   2.392       .  S
O1312     Zr1318   2.375       .  S
O1312      H2147   0.965       .  S
O1313     Zr1316   2.406       .  S
O1313     Zr1333   2.365       .  S
O1313      H1350   0.956       .  S
O1314     Zr1317   2.382       .  S
O1314     Zr1333   2.396       .  S
Zr1315     O1334   2.433       .  S
Zr1315     O1330   2.416       .  S
Zr1315     O1321   2.385   1_556  S
Zr1315     O1322   2.415       .  S
Zr1315     O1323   2.381       .  S
Zr1315     O1324   2.379       .  S
Zr1316     O1335   2.436       .  S
Zr1316     O1328   2.434       .  S
Zr1316     O1329   2.478       .  S
Zr1316     O1322   2.397       .  S
Zr1316     O1323   2.400       .  S
Zr1317     O1319   2.434       .  S
Zr1317     O2107   2.387       .  S
Zr1317     O1321   2.384   1_556  S
Zr1317     O1324   2.383       .  S
Zr1318     O1320   2.436   1_556  S
Zr1318     O2110   2.384       .  S
Zr1318     O1321   2.379   1_556  S
Zr1318     O1322   2.372       .  S
O1319      H1356   0.990       .  S
O1320      H1351   0.990       .  S
O1320      H1365   0.991   1_554  S
O1322      H1348   0.963       .  S
O1323     Zr1333   2.387       .  S
O1324     Zr1333   2.373       .  S
O1324      H1349   0.965       .  S
C1326      C1398   1.466       .  S
C1327      C1369   1.521       .  S
O1328      H1364   0.990       .  S
O1329      C1331   1.293       .  A
O1330      C1331   1.281       .  A
O1332     Zr1333   2.443       .  S
O1332      H1361   0.990       .  S
Zr1333     O1336   2.438       .  S
Zr1333     O1337   2.441       .  S
Zr1333     O1338   2.401       .  S
O1334      C1339   1.281       .  A
O1335      H1352   0.991       .  S
O1335      H1367   0.990       .  S
O1336      H1353   0.990       .  S
O1337      H1357   0.990       .  S
O1337      H1366   0.990       .  S
O1338      C1339   1.278       .  A
C1339      C1400   1.469       .  S
O1340      H1359   0.989       .  S
O1340      H1363   0.991       .  S
O1341      H1355   0.991       .  S
O1341      H2162   0.989       .  S
O1342      C1346   1.287       .  A
O1343      C1346   1.275       .  A
O1344      H2154   0.990       .  S
O1345      H1358   0.990       .  S
C1369      C1370   1.523       .  S
C1369      C1375   1.528       .  S
C1369      C1373   1.538       .  S
C1370      H1377   1.085       .  S
C1370      C1371   1.374       .  D
C1371      C1372   1.553       .  S
C1371      C2047   1.486       .  S
C1372      C1376   1.550       .  S
C1372      C1374   1.543       .  S
C1372      H1378   1.111       .  S
C1373      H1379   1.086       .  S
C1373      C1374   1.375       .  D
C1375      H1380   1.084       .  S
C1375      C1376   1.359       .  D
C1376      C1595   1.484       .  S
C1381      C1382   1.537       .  S
C1381      C1387   1.546       .  S
C1381      C1385   1.548       .  S
C1381      C1572   1.539       .  S
C1382      H1389   1.086       .  S
C1382      C1383   1.356       .  D
C1383      C1384   1.525       .  S
C1383      C1526   1.455       .  S
C1384      C1388   1.528       .  S
C1384      C1386   1.537       .  S
C1384      H1390   1.112       .  S
C1385      H2191   1.086       .  S
C1385      C1386   1.377       .  D
C1386      C2048   1.473       .  S
C1387      H1392   1.083       .  S
C1387      C1388   1.362       .  D
C1393      C1394   1.530       .  S
C1393      C1399   1.533   1_455  S
C1393      C1397   1.552   1_455  S
C1393      C1562   1.521       .  S
C1394      H1401   1.088       .  S
C1394      C1395   1.352       .  D
C1395      C1396   1.532   1_455  S
C1395      C1448   1.463       .  S
C1396      C1400   1.530       .  S
C1396      C1398   1.542       .  S
C1396      H1402   1.112       .  S
C1397      H1403   1.084       .  S
C1397      C1398   1.381       .  D
C1399      H1404   1.087   1_655  S
C1399      C1400   1.359       .  D
Zr1405     O1406   2.444       .  S
Zr1405     O1407   2.504       .  S
Zr1405     O1408   2.485       .  S
Zr1405     O1411   2.475       .  S
Zr1405     O1413   2.400       .  S
Zr1405     O1414   2.392       .  S
Zr1405     O1415   2.430       .  S
Zr1405     O1416   2.420       .  S
O1406      H1462   0.991       .  S
O1406      H1470   0.990       .  S
O1407      C1427   1.292       .  A
O1408      C1429   1.295       .  A
O1409     Zr1419   2.398       .  S
O1409      C1428   1.276       .  A
O1410     Zr1418   2.460       .  S
O1410      C1429   1.290       .  A
O1411      C1428   1.290       .  A
O1412     Zr1420   2.385       .  S
O1412      C1427   1.270       .  A
O1413     Zr1418   2.413       .  S
O1413     Zr1420   2.393       .  S
O1414     Zr1419   2.393       .  S
O1414     Zr1420   2.372       .  S
O1414      H1449   0.966       .  S
O1415     Zr1418   2.408       .  S
O1415     Zr1435   2.367       .  S
O1415      H1452   0.959       .  S
O1416     Zr1419   2.384       .  S
O1416     Zr1435   2.394       .  S
Zr1417     O1444   2.443       .  S
Zr1417     O1423   2.391       .  S
Zr1417     O1424   2.415       .  S
Zr1417     O1425   2.378       .  S
Zr1417     O1426   2.380       .  S
Zr1418     O1437   2.437       .  S
Zr1418     O1430   2.434       .  S
Zr1418     O1431   2.481       .  S
Zr1418     O1424   2.395       .  S
Zr1418     O1425   2.401       .  S
Zr1419     O1421   2.435   1_455  S
Zr1419     O1443   2.439       .  S
Zr1419     O1445   2.408       .  S
Zr1419     O1423   2.387       .  S
Zr1419     O1426   2.386       .  S
Zr1420     O1446   2.436       .  S
Zr1420     O1447   2.435       .  S
Zr1420     O1422   2.437       .  S
Zr1420     O1423   2.381       .  S
Zr1420     O1424   2.372       .  S
O1421      H1458   0.990       .  S
O1422      H1453   0.990       .  S
O1422      H1467   0.991       .  S
O1424      H1450   0.963       .  S
O1425     Zr1435   2.390       .  S
O1426     Zr1435   2.371       .  S
O1426      H1451   0.965       .  S
C1427      C1551   1.491       .  S
C1429      C1471   1.526       .  S
O1430      H1466   0.990       .  S
O1432     Zr2217   2.423       .  S
O1432      C1433   1.282       .  A
C1433      C1554   1.482       .  S
C1433      O2231   1.293       .  A
O1434     Zr1435   2.441       .  S
O1434      H1463   0.990       .  S
Zr1435     O1438   2.438       .  S
Zr1435     O1439   2.440   1_455  S
Zr1435     O1440   2.398       .  S
O1436     Zr2217   2.443       .  S
O1436      C1441   1.284       .  A
O1437      H1454   0.990       .  S
O1437      H1469   0.990       .  S
O1438      H1455   0.990       .  S
O1439      H1459   0.990       .  S
O1439      H1468   0.989       .  S
C1441      O2240   1.277       .  A
O1442      H1461   0.991   1_554  S
O1443      H1457   0.990   1_455  S
O1443      H1464   0.990       .  S
O1446      H1456   0.990       .  S
O1447      H1460   0.990       .  S
C1471      C1472   1.528       .  S
C1471      C1477   1.532       .  S
C1471      C1475   1.540       .  S
C1472      H1479   1.085       .  S
C1472      C1473   1.376       .  D
C1473      C1474   1.544       .  S
C1473      C1505   1.487       .  S
C1474      C1478   1.545       .  S
C1474      C1476   1.538       .  S
C1474      H1480   1.111       .  S
C1475      H1481   1.086       .  S
C1475      C1476   1.377       .  D
C1476      C1511   1.480       .  S
C1477      H1482   1.086       .  S
C1477      C1478   1.360       .  D
C1478      C1565   1.478       .  S
Zr1483     O1484   2.441       .  S
Zr1483     O1485   2.499       .  S
Zr1483     O1486   2.483       .  S
Zr1483     O1489   2.471       .  S
Zr1483     O1491   2.400       .  S
Zr1483     O1492   2.395       .  S
Zr1483     O1493   2.427       .  S
Zr1483     O1494   2.422       .  S
O1484      H1540   0.990       .  S
O1484      H1548   0.990       .  S
O1485      C1505   1.291       .  A
O1486      C1507   1.295       .  A
O1487     Zr1497   2.403       .  S
O1487      C1506   1.275       .  A
O1488     Zr1496   2.459       .  S
O1488      C1507   1.290       .  A
O1489      C1506   1.288       .  A
O1490     Zr1498   2.382       .  S
O1490      C1505   1.270       .  A
O1491     Zr1496   2.411       .  S
O1491     Zr1498   2.392       .  S
O1492     Zr1497   2.389       .  S
O1492     Zr1498   2.374       .  S
O1492      H1527   0.966       .  S
O1493     Zr1496   2.405       .  S
O1493     Zr1513   2.368       .  S
O1493      H1530   0.957       .  S
O1494     Zr1497   2.382       .  S
O1494     Zr1513   2.397       .  S
Zr1495     O2320   2.440       .  S
Zr1495     O2314   2.442       .  S
Zr1495     O1522   2.442       .  S
Zr1495     O2310   2.420       .  S
Zr1495     O1501   2.389       .  S
Zr1495     O1502   2.413       .  S
Zr1495     O1503   2.380       .  S
Zr1495     O1504   2.382       .  S
Zr1496     O2315   2.436       .  S
Zr1496     O1508   2.435       .  S
Zr1496     O2309   2.480       .  S
Zr1496     O1502   2.392       .  S
Zr1496     O1503   2.401       .  S
Zr1497     O1499   2.435       .  S
Zr1497     O1521   2.439       .  S
Zr1497     O1523   2.399       .  S
Zr1497     O1501   2.389       .  S
Zr1497     O1504   2.385       .  S
Zr1498     O1524   2.436       .  S
Zr1498     O1525   2.437       .  S
Zr1498     O1500   2.438       .  S
Zr1498     O1501   2.379       .  S
Zr1498     O1502   2.366       .  S
O1499      H1536   0.990       .  S
O1500      H1531   0.990       .  S
O1500      H1545   0.991       .  S
O1502      H1528   0.964       .  S
O1503     Zr1513   2.391       .  S
O1504     Zr1513   2.375       .  S
O1504      H1529   0.966       .  S
C1507      C1549   1.526       .  S
O1508      H1544   0.990       .  S
O1509      C1511   1.294       .  A
O1510      C1511   1.281       .  A
O1512     Zr1513   2.442       .  S
O1512      H1541   0.990       .  S
Zr1513     O2316   2.440       .  S
Zr1513     O1517   2.442       .  S
Zr1513     O2318   2.397       .  S
O1514      C1519   1.283       .  A
O1515      H1532   0.991       .  S
O1515      H1547   0.990       .  S
O1516      H1533   0.990       .  S
O1517      H1537   0.990       .  S
O1517      H1546   0.990       .  S
O1518      C1519   1.277       .  A
O1520      H1543   0.992       .  S
O1521      H1535   0.989       .  S
O1521      H1542   0.991       .  S
O1522      C1526   1.285       .  A
O1523      C1526   1.275       .  A
O1524      H1534   0.990       .  S
O1525      H1538   0.990       .  S
H1539      O2320   0.988       .  S
C1550      C1551   1.377       .  D
C1551      C1552   1.551       .  S
C1552      C1556   1.547       .  S
C1552      C1554   1.542       .  S
C1552      H1558   1.111       .  S
C1553      C1554   1.377       .  D
C1555      H1560   1.085       .  S
C1555      C1556   1.357       .  D
C1556      C1575   1.479       .  S
C1561      C1562   1.404       .  A
C1561      C1566   1.404       .  A
C1561      H1568   1.080       .  S
C1562      C1563   1.418       .  A
C1563      C1564   1.387       .  A
C1563      F1570   1.359       .  S
C1564      C1565   1.392       .  A
C1564      H1569   1.084       .  S
C1565      C1566   1.413       .  A
C1566      F1567   1.357       .  S
C1571      C1572   1.409       .  A
C1571      C1576   1.394       .  A
C1571      H1578   1.080       .  S
C1572      C1573   1.418       .  A
C1573      C1574   1.402       .  A
C1573      F1580   1.357       .  S
C1574      C1575   1.399       .  A
C1574      H1579   1.083       .  S
C1575      C1576   1.405       .  A
C1576      F1577   1.358       .  S
C1581      C1582   1.407       .  A
C1581      C1586   1.398       .  A
C1581      H1588   1.083   1_556  S
C1582      C1583   1.399       .  A
C1583      C1584   1.396       .  A
C1583      F1590   1.354       .  S
C1584      C1585   1.414       .  A
C1584      H1589   1.081       .  S
C1585      C1586   1.410       .  A
C1586      F1587   1.357       .  S
C1591      C1592   1.414       .  A
C1591      C1596   1.396       .  A
C1591      H1598   1.082       .  S
C1592      C1593   1.410       .  A
C1593      C1594   1.399       .  A
C1593      F1600   1.357       .  S
C1594      C1595   1.408       .  A
C1594      H1599   1.083       .  S
C1595      C1596   1.399       .  A
C1596      F1597   1.355       .  S
C1601      C1602   1.540       .  S
C1601      C1607   1.542       .  S
C1601      C1605   1.545       .  S
C1601      C1992   1.536       .  S
C1602      H1609   1.085       .  S
C1602      C1603   1.354       .  D
C1603      C1604   1.528   1_655  S
C1603      C1746   1.460       .  S
C1604      C1608   1.530   1_455  S
C1604      C1606   1.539       .  S
C1604      H1610   1.112       .  S
C1605      H1611   1.086       .  S
C1605      C1606   1.376   1_655  D
C1606      C1828   1.471       .  S
C1607      H1612   1.085       .  S
C1607      C1608   1.364       .  D
C1608      C1841   1.473   1_655  S
C1613      C1614   1.540       .  S
C1613      C1619   1.542       .  S
C1613      C1617   1.546       .  S
C1613      C1985   1.537       .  S
C1614      H1621   1.084       .  S
C1614      C1615   1.354       .  D
C1615      C1616   1.525       .  S
C1615      C1668   1.459       .  S
C1616      C1620   1.529       .  S
C1616      C1618   1.539       .  S
C1616      H1622   1.112       .  S
C1617      H1623   1.086       .  S
C1617      C1618   1.376       .  D
C1618      C1906   1.471       .  S
C1619      H1624   1.085       .  S
C1619      C1620   1.363       .  D
C1620      C1919   1.470       .  S
Zr1625     O1626   2.441       .  S
Zr1625     O1627   2.494       .  S
Zr1625     O1628   2.478       .  S
Zr1625     O1631   2.472       .  S
Zr1625     O1633   2.399       .  S
Zr1625     O1634   2.394       .  S
Zr1625     O1635   2.425       .  S
Zr1625     O1636   2.418       .  S
O1626      H1682   0.990       .  S
O1626      H1690   0.990       .  S
O1627      C1647   1.290       .  A
O1628      C1649   1.294       .  A
O1629     Zr1639   2.405       .  S
O1629      C1648   1.276       .  A
O1630     Zr1638   2.461       .  S
O1630      C1649   1.292       .  A
O1631      C1648   1.288       .  A
O1632     Zr1640   2.391       .  S
O1632      C1647   1.272       .  A
O1633     Zr1638   2.410       .  S
O1633     Zr1640   2.390       .  S
O1634     Zr1639   2.392       .  S
O1634     Zr1640   2.373       .  S
O1634      H1669   0.966       .  S
O1635     Zr1638   2.407       .  S
O1635     Zr1655   2.365       .  S
O1635      H1672   0.960       .  S
O1636     Zr1639   2.382       .  S
O1636     Zr1655   2.395       .  S
Zr1637     O1662   2.441       .  S
Zr1637     O1656   2.441       .  S
Zr1637     O1664   2.437       .  S
Zr1637     O1652   2.423       .  S
Zr1637     O1643   2.395       .  S
Zr1637     O1644   2.414       .  S
Zr1637     O1645   2.377       .  S
Zr1637     O1646   2.380       .  S
Zr1638     O1657   2.436       .  S
Zr1638     O1650   2.435       .  S
Zr1638     O1651   2.485       .  S
Zr1638     O1644   2.396       .  S
Zr1638     O1645   2.401       .  S
Zr1639     O1641   2.435       .  S
Zr1639     O1663   2.441       .  S
Zr1639     O1665   2.404       .  S
Zr1639     O1643   2.391       .  S
Zr1639     O1646   2.389       .  S
Zr1640     O1666   2.436       .  S
Zr1640     O1667   2.436       .  S
Zr1640     O1642   2.437       .  S
Zr1640     O1643   2.382       .  S
Zr1640     O1644   2.373       .  S
O1641      H1678   0.990       .  S
O1642      H1673   0.990       .  S
O1642      H1687   0.991       .  S
O1644      H1670   0.963       .  S
O1645     Zr1655   2.388       .  S
O1646     Zr1655   2.371       .  S
O1646      H1671   0.966       .  S
C1649      C1691   1.523       .  S
O1650      H1686   0.990       .  S
O1651      C1653   1.294       .  A
O1652      C1653   1.282       .  A
C1653      C1774   1.484       .  S
O1654     Zr1655   2.441       .  S
O1654      H1683   0.990       .  S
Zr1655     O1658   2.439       .  S
Zr1655     O1659   2.440       .  S
Zr1655     O1660   2.401       .  S
O1656      C1661   1.283       .  A
O1657      H1674   0.991       .  S
O1657      H1689   0.990       .  S
O1658      H1675   0.990       .  S
O1659      H1679   0.990       .  S
O1659      H1688   0.989       .  S
O1660      C1661   1.278       .  A
C1661      C1788   1.476       .  S
O1662      H1681   0.989       .  S
O1662      H1685   0.991       .  S
O1663      H1677   0.990       .  S
O1663      H1684   0.990       .  S
O1664      C1668   1.285       .  A
O1665      C1668   1.276       .  A
O1666      H1676   0.990       .  S
O1667      H1680   0.990       .  S
C1691      C1692   1.527       .  S
C1691      C2097   1.528       .  S
C1691      C1695   1.536       .  S
C1692      H1699   1.086       .  S
C1692      C2093   1.377   1_554  D
C1693      C1694   1.551       .  S
C1693      C2092   1.377       .  D
C1693      C1725   1.491       .  S
C1694      C1698   1.550       .  S
C1694      C1696   1.541       .  S
C1694      H1700   1.110       .  S
C1695      H1701   1.086       .  S
C1695      C2096   1.375   1_554  D
C1696      C2095   1.375       .  D
C1696      C1731   1.480       .  S
C1697      C2091   1.529       .  S
C1697      H2102   1.085       .  S
C1697      C1698   1.361       .  D
C1698      C1982   1.485       .  S
H1702      C2097   1.085       .  S
Zr1703     O1704   2.444   1_565  S
Zr1703     O1706   2.475       .  S
Zr1703     O1711   2.399       .  S
Zr1703     O1712   2.388       .  S
Zr1703     O1713   2.429       .  S
Zr1703     O1714   2.420       .  S
O1704      H1768   0.991       .  S
O1705      C1725   1.292       .  A
O1706      C1727   1.293       .  A
O1707      C1726   1.275       .  A
O1708     Zr1716   2.460       .  S
O1708      C1727   1.290       .  A
O1709      C1726   1.290       .  A
O1710      C1725   1.272       .  A
O1711     Zr1716   2.412       .  S
O1711     Zr1718   2.391       .  S
O1712     Zr1717   2.393       .  S
O1712     Zr1718   2.376       .  S
O1713     Zr1716   2.406       .  S
O1713     Zr1733   2.366       .  S
O1713      H1750   0.957       .  S
O1714     Zr1717   2.382       .  S
O1714     Zr1733   2.397       .  S
Zr1715     O2140   2.441       .  S
Zr1715     O1734   2.436       .  S
Zr1715     O2142   2.448       .  S
Zr1715     O1730   2.416       .  S
Zr1715     O1721   2.387       .  S
Zr1715     O1722   2.414       .  S
Zr1715     O1723   2.383       .  S
Zr1715     O1724   2.379       .  S
Zr1716     O1735   2.437       .  S
Zr1716     O1728   2.434       .  S
Zr1716     O1729   2.481       .  S
Zr1716     O1722   2.395       .  S
Zr1716     O1723   2.402       .  S
Zr1717     O1719   2.436       .  S
Zr1717     O2141   2.439   1_565  S
Zr1717     O2143   2.405       .  S
Zr1717     O1721   2.385       .  S
Zr1717     O1724   2.383       .  S
Zr1718     O2144   2.437       .  S
Zr1718     O2145   2.436       .  S
Zr1718     O1720   2.436       .  S
Zr1718     O1721   2.380       .  S
Zr1718     O1722   2.370       .  S
O1719      H1756   0.990       .  S
O1720      H1751   0.990       .  S
O1720      H1765   0.991       .  S
O1722      H1748   0.963       .  S
O1723     Zr1733   2.388       .  S
O1724     Zr1733   2.374       .  S
O1724      H1749   0.965       .  S
C1726      C1798   1.466       .  S
C1727      C1769   1.521       .  S
O1728      H1764   0.990       .  S
O1729      C1731   1.293       .  A
O1730      C1731   1.281       .  A
O1732     Zr1733   2.443       .  S
O1732      H1761   0.990       .  S
Zr1733     O1736   2.439       .  S
Zr1733     O1737   2.442       .  S
Zr1733     O1738   2.399       .  S
O1734      C1739   1.282       .  A
O1735      H1752   0.991       .  S
O1735      H1767   0.990       .  S
O1736      H1753   0.990       .  S
O1737      H1757   0.990       .  S
O1737      H1766   0.990       .  S
O1738      C1739   1.277       .  A
C1739      C1800   1.469       .  S
O1740     Zr2115   2.442   1_554  S
O1740      H1759   0.989       .  S
O1740      H1763   0.991       .  S
O1741     Zr2117   2.438   1_544  S
O1741      H1755   0.991       .  S
O1742     Zr2115   2.445   1_554  S
O1742      C1746   1.286       .  A
O1743     Zr2117   2.405   1_554  S
O1743      C1746   1.275       .  A
O1744     Zr2118   2.437   1_554  S
O1745     Zr2118   2.436   1_554  S
O1745      H1758   0.990       .  S
C1769      C1770   1.524       .  S
C1769      C1775   1.529       .  S
C1769      C1773   1.538       .  S
C1770      H1777   1.085       .  S
C1770      C1771   1.375       .  D
C1771      C1772   1.552       .  S
C1772      C1776   1.550       .  S
C1772      C1774   1.543       .  S
C1772      H1778   1.110       .  S
C1773      H1779   1.086       .  S
C1773      C1774   1.375       .  D
C1775      H1780   1.085       .  S
C1775      C1776   1.359       .  D
C1776      C1995   1.484       .  S
C1781      C1782   1.538       .  S
C1781      C1787   1.547       .  S
C1781      C1785   1.548       .  S
C1781      C1972   1.539       .  S
C1782      H1789   1.086       .  S
C1782      C1783   1.356       .  D
C1783      C1784   1.527       .  S
C1783      C1926   1.457       .  S
C1784      C1788   1.529       .  S
C1784      C1786   1.537       .  S
C1784      H1790   1.112       .  S
C1785      C1786   1.377       .  D
C1787      H1792   1.082       .  S
C1787      C1788   1.362       .  D
C1793      C1794   1.530       .  S
C1793      C1799   1.533   1_455  S
C1793      C1797   1.552   1_455  S
C1793      C1962   1.522       .  S
C1794      H1801   1.088       .  S
C1794      C1795   1.352       .  D
C1795      C1796   1.531   1_455  S
C1795      C1848   1.462       .  S
C1796      C1800   1.529       .  S
C1796      C1798   1.542       .  S
C1796      H1802   1.112       .  S
C1797      H1803   1.084       .  S
C1797      C1798   1.381       .  D
C1799      H1804   1.087   1_655  S
C1799      C1800   1.360       .  D
Zr1805     O1806   2.444       .  S
Zr1805     O1807   2.503       .  S
Zr1805     O1808   2.485       .  S
Zr1805     O1811   2.475       .  S
Zr1805     O1813   2.401       .  S
Zr1805     O1814   2.393       .  S
Zr1805     O1815   2.431       .  S
Zr1805     O1816   2.419       .  S
O1806      H1862   0.991       .  S
O1806      H1870   0.990       .  S
O1807      C1827   1.291       .  A
O1808      C1829   1.295       .  A
O1809     Zr1819   2.397       .  S
O1809      C1828   1.276       .  A
O1810     Zr1818   2.461       .  S
O1810      C1829   1.290       .  A
O1811      C1828   1.290       .  A
O1812     Zr1820   2.385       .  S
O1812      C1827   1.270       .  A
O1813     Zr1818   2.413       .  S
O1813     Zr1820   2.393       .  S
O1814     Zr1819   2.393       .  S
O1814     Zr1820   2.373       .  S
O1814      H1849   0.966       .  S
O1815     Zr1818   2.409       .  S
O1815     Zr1835   2.366       .  S
O1815      H1852   0.959       .  S
O1816     Zr1819   2.385       .  S
O1816     Zr1835   2.393       .  S
Zr1817     O2242   2.439       .  S
Zr1817     O1844   2.444   1_554  S
Zr1817     O1823   2.391       .  S
Zr1817     O1824   2.415       .  S
Zr1817     O1825   2.379       .  S
Zr1817     O1826   2.381       .  S
Zr1818     O1837   2.438       .  S
Zr1818     O1830   2.434       .  S
Zr1818     O1831   2.482       .  S
Zr1818     O1824   2.396       .  S
Zr1818     O1825   2.399       .  S
Zr1819     O1821   2.436   1_455  S
Zr1819     O1843   2.440       .  S
Zr1819     O1845   2.412       .  S
Zr1819     O1823   2.389       .  S
Zr1819     O1826   2.386       .  S
Zr1820     O1846   2.435   1_554  S
Zr1820     O1847   2.436   1_554  S
Zr1820     O1822   2.437       .  S
Zr1820     O1823   2.381       .  S
Zr1820     O1824   2.373       .  S
O1821      H1858   0.990       .  S
O1822      H1853   0.990   1_554  S
O1822      H1867   0.990       .  S
O1824      H1850   0.963       .  S
O1825     Zr1835   2.389       .  S
O1826     Zr1835   2.372       .  S
O1826      H1851   0.965       .  S
C1827      C1951   1.490       .  S
C1829      C1871   1.526       .  S
O1830      H1866   0.990       .  S
O1832      C1833   1.282       .  A
C1833      C1954   1.482       .  S
O1834     Zr1835   2.441       .  S
O1834      H1863   0.990       .  S
Zr1835     O1838   2.439       .  S
Zr1835     O1839   2.438   1_455  S
Zr1835     O1840   2.396       .  S
O1836      C1841   1.284       .  A
O1837      H1854   0.990       .  S
O1837      H1869   0.990       .  S
O1838      H1855   0.990       .  S
O1839      H1859   0.990       .  S
O1839      H1868   0.989       .  S
O1842     Zr2217   2.440       .  S
O1842      H1861   0.991       .  S
O1842      H2265   0.989       .  S
O1843      H1857   0.990   1_455  S
O1843      H1864   0.990       .  S
O1844      C2248   1.286       .  A
O1845      C2248   1.276   1_554  A
O1846      H1856   0.990       .  S
O1847      H1860   0.990       .  S
C1848      O2244   1.286       .  A
C1848      O2245   1.276       .  A
H1865      O2242   0.989   1_556  S
C1871      C1872   1.528       .  S
C1871      C1877   1.532       .  S
C1871      C1875   1.540       .  S
C1872      H1879   1.085       .  S
C1872      C1873   1.376       .  D
C1873      C1874   1.544       .  S
C1873      C1905   1.486       .  S
C1874      C1878   1.545       .  S
C1874      C1876   1.536       .  S
C1874      H1880   1.111       .  S
C1875      H1881   1.086       .  S
C1875      C1876   1.377       .  D
C1876      C1911   1.478       .  S
C1877      H1882   1.085       .  S
C1877      C1878   1.361       .  D
C1878      C1965   1.478       .  S
Zr1883     O1884   2.441       .  S
Zr1883     O1885   2.496       .  S
Zr1883     O1886   2.483       .  S
Zr1883     O1889   2.468       .  S
Zr1883     O1891   2.400       .  S
Zr1883     O1892   2.396       .  S
Zr1883     O1893   2.427       .  S
Zr1883     O1894   2.421       .  S
O1884      H1940   0.990       .  S
O1884      H1948   0.991       .  S
O1885      C1905   1.290       .  A
O1886      C1907   1.295       .  A
O1887     Zr1897   2.402       .  S
O1887      C1906   1.275       .  A
O1888     Zr1896   2.457       .  S
O1888      C1907   1.289       .  A
O1889      C1906   1.288       .  A
O1890     Zr1898   2.385       .  S
O1890      C1905   1.270       .  A
O1891     Zr1896   2.410       .  S
O1891     Zr1898   2.391       .  S
O1892     Zr1897   2.390       .  S
O1892     Zr1898   2.374       .  S
O1892      H1927   0.966       .  S
O1893     Zr1896   2.406       .  S
O1893     Zr1913   2.366       .  S
O1893      H1930   0.957       .  S
O1894     Zr1897   2.381       .  S
O1894     Zr1913   2.396       .  S
Zr1895     O1922   2.446       .  S
Zr1895     O1901   2.387       .  S
Zr1895     O1902   2.414       .  S
Zr1895     O1903   2.381       .  S
Zr1895     O1904   2.383       .  S
Zr1896     O1908   2.435       .  S
Zr1896     O1902   2.391       .  S
Zr1896     O1903   2.401       .  S
Zr1897     O1899   2.436       .  S
Zr1897     O1921   2.439       .  S
Zr1897     O1923   2.400       .  S
Zr1897     O1901   2.388       .  S
Zr1897     O1904   2.386       .  S
Zr1898     O1924   2.435       .  S
Zr1898     O1925   2.436       .  S
Zr1898     O1900   2.438       .  S
Zr1898     O1901   2.379       .  S
Zr1898     O1902   2.367       .  S
O1899      H1936   0.990       .  S
O1900      H1931   0.990       .  S
O1900      H1945   0.991       .  S
O1902      H1928   0.964       .  S
O1903     Zr1913   2.392       .  S
O1904     Zr1913   2.376       .  S
O1904      H1929   0.966       .  S
C1907      C1949   1.525       .  S
O1908      H1944   0.990       .  S
O1909      C1911   1.294       .  A
O1910      C1911   1.280       .  A
O1912     Zr1913   2.443       .  S
O1912      H1941   0.990       .  S
Zr1913     O1917   2.442       .  S
O1914      C1919   1.283       .  A
O1915      H1932   0.991       .  S
O1915      H1947   0.990       .  S
O1916      H1933   0.990       .  S
O1917      H1937   0.990       .  S
O1917      H1946   0.990       .  S
O1918      C1919   1.277       .  A
O1920      H1943   0.992       .  S
O1921      H1935   0.989       .  S
O1921      H1942   0.990       .  S
O1922      C1926   1.286       .  A
O1923      C1926   1.275       .  A
O1924      H1934   0.990       .  S
O1925      H1938   0.990       .  S
C1949      C2350   1.526       .  S
C1949      C2355   1.528       .  S
C1949      C2353   1.539       .  S
C1950      C2349   1.526       .  S
C1950      H2357   1.085       .  S
C1950      C1951   1.377   1_556  D
C1951      C1952   1.551       .  S
C1952      C1956   1.547       .  S
C1952      C1954   1.542       .  S
C1952      H1958   1.111       .  S
C1953      C2349   1.539       .  S
C1953      H2359   1.086       .  S
C1953      C1954   1.377   1_556  D
C1955      C2349   1.526       .  S
C1955      H1960   1.085       .  S
C1955      C1956   1.357   1_556  D
C1956      C1975   1.478       .  S
H1957      C2350   1.086       .  S
H1959      C2353   1.086       .  S
C1961      C1962   1.404       .  A
C1961      C1966   1.404       .  A
C1961      H1968   1.080       .  S
C1962      C1963   1.418       .  A
C1963      C1964   1.387       .  A
C1963      F1970   1.359       .  S
C1964      C1965   1.392       .  A
C1964      H1969   1.084       .  S
C1965      C1966   1.413       .  A
C1966      F1967   1.357       .  S
C1971      C1972   1.409       .  A
C1971      C1976   1.393       .  A
C1971      H1978   1.079       .  S
C1972      C1973   1.418       .  A
C1973      C1974   1.403       .  A
C1973      F1980   1.358   1_565  S
C1974      C1975   1.399       .  A
C1974      H1979   1.083       .  S
C1975      C1976   1.404       .  A
C1976      F1977   1.358       .  S
C1981      C1982   1.407       .  A
C1981      C1986   1.399       .  A
C1981      H1988   1.083       .  S
C1982      C1983   1.400       .  A
C1983      C1984   1.396       .  A
C1983      F1990   1.354       .  S
C1984      C1985   1.414       .  A
C1984      H1989   1.081       .  S
C1985      C1986   1.411       .  A
C1986      F1987   1.357       .  S
C1991      C1992   1.414       .  A
C1991      C1996   1.396       .  A
C1991      H1998   1.081       .  S
C1992      C1993   1.410       .  A
C1993      C1994   1.399       .  A
C1993      F2000   1.357       .  S
C1994      C1995   1.408       .  A
C1994      H1999   1.083       .  S
C1995      C1996   1.399       .  A
C1996      F1997   1.354       .  S
C2001      C2002   1.542       .  S
C2001      C2007   1.542       .  S
C2001      C2005   1.545       .  S
C2001      C2392   1.537       .  S
C2002      H2009   1.085       .  S
C2002      C2003   1.354       .  D
C2003      C2004   1.527   1_655  S
C2003      C2146   1.462       .  S
C2004      C2008   1.530   1_455  S
C2004      C2006   1.538       .  S
C2004      H2010   1.112       .  S
C2005      H2011   1.086       .  S
C2005      C2006   1.376   1_655  D
C2006      C2228   1.471       .  S
C2007      H2012   1.085       .  S
C2007      C2008   1.365       .  D
C2008      C2241   1.473   1_655  S
C2013      C2014   1.539       .  S
C2013      C2019   1.542       .  S
C2013      C2017   1.545       .  S
C2013      C2385   1.536       .  S
C2014      H2021   1.085       .  S
C2014      C2015   1.354       .  D
C2015      C2016   1.526       .  S
C2015      C2068   1.458       .  S
C2016      C2020   1.529       .  S
C2016      C2018   1.540       .  S
C2016      H2022   1.112       .  S
C2017      H2023   1.086       .  S
C2017      C2018   1.376       .  D
C2018      C2306   1.470       .  S
C2019      H2024   1.085       .  S
C2019      C2020   1.363       .  D
C2020      C2319   1.471       .  S
Zr2025     O2026   2.441       .  S
Zr2025     O2027   2.487       .  S
Zr2025     O2028   2.483       .  S
Zr2025     O2031   2.472       .  S
Zr2025     O2033   2.402       .  S
Zr2025     O2034   2.398       .  S
Zr2025     O2035   2.423       .  S
Zr2025     O2036   2.417       .  S
O2026      H2082   0.990       .  S
O2026      H2090   0.990       .  S
O2027      C2047   1.288       .  A
O2028      C2049   1.295       .  A
O2029     Zr2039   2.405       .  S
O2029      C2048   1.277       .  A
O2030     Zr2038   2.460       .  S
O2030      C2049   1.291       .  A
O2031      C2048   1.289       .  A
O2032     Zr2040   2.394       .  S
O2032      C2047   1.273       .  A
O2033     Zr2038   2.411       .  S
O2033     Zr2040   2.391       .  S
O2034     Zr2039   2.393       .  S
O2034     Zr2040   2.376       .  S
O2034      H2069   0.966       .  S
O2035     Zr2038   2.410       .  S
O2035     Zr2055   2.364       .  S
O2035      H2072   0.960       .  S
O2036     Zr2039   2.381       .  S
O2036     Zr2055   2.394       .  S
Zr2037     O2062   2.440       .  S
Zr2037     O2056   2.447       .  S
Zr2037     O2064   2.436       .  S
Zr2037     O2052   2.421       .  S
Zr2037     O2043   2.394       .  S
Zr2037     O2044   2.414       .  S
Zr2037     O2045   2.376       .  S
Zr2037     O2046   2.380       .  S
Zr2038     O2057   2.436       .  S
Zr2038     O2050   2.435       .  S
Zr2038     O2051   2.485       .  S
Zr2038     O2044   2.395       .  S
Zr2038     O2045   2.402       .  S
Zr2039     O2041   2.435       .  S
Zr2039     O2063   2.440       .  S
Zr2039     O2065   2.403       .  S
Zr2039     O2043   2.390       .  S
Zr2039     O2046   2.389       .  S
Zr2040     O2066   2.436       .  S
Zr2040     O2067   2.438       .  S
Zr2040     O2042   2.437       .  S
Zr2040     O2043   2.382       .  S
Zr2040     O2044   2.374       .  S
O2041      H2078   0.990       .  S
O2042      H2073   0.990       .  S
O2042      H2087   0.990       .  S
O2044      H2070   0.963       .  S
O2045     Zr2055   2.389       .  S
O2046     Zr2055   2.370       .  S
O2046      H2071   0.966       .  S
C2049      C2091   1.525       .  S
O2050      H2086   0.990       .  S
O2051      C2053   1.294       .  A
O2052      C2053   1.282       .  A
C2053      C2174   1.484       .  S
O2054     Zr2055   2.441       .  S
O2054      H2083   0.990       .  S
Zr2055     O2058   2.438       .  S
Zr2055     O2059   2.440       .  S
Zr2055     O2060   2.399       .  S
O2056      C2061   1.284       .  A
O2057      H2074   0.991       .  S
O2057      H2089   0.990       .  S
O2058      H2075   0.990       .  S
O2059      H2079   0.990       .  S
O2059      H2088   0.989       .  S
O2060      C2061   1.277       .  A
C2061      C2188   1.477       .  S
O2062      H2081   0.989       .  S
O2062      H2085   0.991       .  S
O2063      H2077   0.990       .  S
O2063      H2084   0.990       .  S
O2064      C2068   1.284       .  A
O2065      C2068   1.275       .  A
O2066      H2076   0.990       .  S
O2067      H2080   0.990       .  S
C2091      C2092   1.527       .  S
C2091      C2095   1.537       .  S
C2092      H2099   1.086       .  S
C2093      C2094   1.551       .  S
C2093      C2125   1.489       .  S
C2094      C2098   1.548       .  S
C2094      C2096   1.541       .  S
C2094      H2100   1.110       .  S
C2095      H2101   1.086       .  S
C2096      C2131   1.480       .  S
C2097      C2098   1.360   1_554  D
C2098      C2382   1.482       .  S
Zr2103     O2104   2.445   1_565  S
Zr2103     O2106   2.477       .  S
Zr2103     O2111   2.399       .  S
Zr2103     O2112   2.387       .  S
Zr2103     O2113   2.428       .  S
Zr2103     O2114   2.421       .  S
O2104      H2168   0.991       .  S
O2105      C2125   1.291       .  A
O2106      C2127   1.293       .  A
O2107      C2126   1.276       .  A
O2108     Zr2116   2.459       .  S
O2108      C2127   1.290       .  A
O2109      C2126   1.290       .  A
O2110      C2125   1.271       .  A
O2111     Zr2116   2.414       .  S
O2111     Zr2118   2.390       .  S
O2112     Zr2117   2.394       .  S
O2112     Zr2118   2.375       .  S
O2113     Zr2116   2.407       .  S
O2113     Zr2133   2.366       .  S
O2113      H2150   0.956       .  S
O2114     Zr2117   2.381       .  S
O2114     Zr2133   2.396       .  S
Zr2115     O2134   2.435       .  S
Zr2115     O2130   2.413       .  S
Zr2115     O2121   2.387   1_556  S
Zr2115     O2122   2.416       .  S
Zr2115     O2123   2.382       .  S
Zr2115     O2124   2.379       .  S
Zr2116     O2135   2.437       .  S
Zr2116     O2128   2.435       .  S
Zr2116     O2129   2.484       .  S
Zr2116     O2122   2.396       .  S
Zr2116     O2123   2.401       .  S
Zr2117     O2119   2.436       .  S
Zr2117     O2121   2.384   1_556  S
Zr2117     O2124   2.383       .  S
Zr2118     O2120   2.436   1_556  S
Zr2118     O2121   2.381   1_556  S
Zr2118     O2122   2.373       .  S
O2119      H2156   0.990       .  S
O2120      H2151   0.990       .  S
O2120      H2165   0.991   1_554  S
O2122      H2148   0.963       .  S
O2123     Zr2133   2.388       .  S
O2124     Zr2133   2.372       .  S
O2124      H2149   0.965       .  S
C2126      C2198   1.465       .  S
C2127      C2169   1.522       .  S
O2128      H2164   0.990       .  S
O2129      C2131   1.294       .  A
O2130      C2131   1.280       .  A
O2132     Zr2133   2.441       .  S
O2132      H2161   0.990       .  S
Zr2133     O2136   2.437       .  S
Zr2133     O2137   2.441       .  S
Zr2133     O2138   2.402       .  S
O2134      C2139   1.281       .  A
O2135      H2152   0.991       .  S
O2135      H2167   0.990       .  S
O2136      H2153   0.990       .  S
O2137      H2157   0.990       .  S
O2137      H2166   0.990       .  S
O2138      C2139   1.278       .  A
C2139      C2200   1.470       .  S
O2140      H2159   0.989       .  S
O2140      H2163   0.991       .  S
O2141      H2155   0.991       .  S
O2142      C2146   1.287       .  A
O2143      C2146   1.276       .  A
O2145      H2158   0.990       .  S
C2169      C2170   1.525       .  S
C2169      C2175   1.529       .  S
C2169      C2173   1.538       .  S
C2170      H2177   1.085       .  S
C2170      C2171   1.375       .  D
C2171      C2172   1.552       .  S
C2172      C2176   1.550       .  S
C2172      C2174   1.542       .  S
C2172      H2178   1.110       .  S
C2173      H2179   1.086       .  S
C2173      C2174   1.375       .  D
C2175      H2180   1.084       .  S
C2175      C2176   1.358       .  D
C2176      C2395   1.485       .  S
C2181      C2182   1.537       .  S
C2181      C2187   1.548       .  S
C2181      C2185   1.547       .  S
C2181      C2372   1.537       .  S
C2182      H2189   1.087       .  S
C2182      C2183   1.355       .  D
C2183      C2184   1.526       .  S
C2183      C2326   1.455       .  S
C2184      C2188   1.528       .  S
C2184      C2186   1.537       .  S
C2184      H2190   1.112       .  S
C2185      C2186   1.376       .  D
C2187      H2192   1.082       .  S
C2187      C2188   1.363       .  D
C2193      C2194   1.530       .  S
C2193      C2199   1.533   1_455  S
C2193      C2197   1.552   1_455  S
C2193      C2362   1.522       .  S
C2194      H2201   1.088       .  S
C2194      C2195   1.352       .  D
C2195      C2196   1.531   1_455  S
C2195      C2248   1.463       .  S
C2196      C2200   1.530       .  S
C2196      C2198   1.542       .  S
C2196      H2202   1.112       .  S
C2197      H2203   1.084       .  S
C2197      C2198   1.381       .  D
C2199      H2204   1.087   1_655  S
C2199      C2200   1.360       .  D
Zr2205     O2206   2.443       .  S
Zr2205     O2207   2.503       .  S
Zr2205     O2208   2.487       .  S
Zr2205     O2211   2.472       .  S
Zr2205     O2213   2.400       .  S
Zr2205     O2214   2.395       .  S
Zr2205     O2215   2.429       .  S
Zr2205     O2216   2.421       .  S
O2206      H2262   0.990       .  S
O2206      H2270   0.990       .  S
O2207      C2227   1.292       .  A
O2208      C2229   1.296       .  A
O2209     Zr2219   2.402       .  S
O2209      C2228   1.276       .  A
O2210     Zr2218   2.461       .  S
O2210      C2229   1.290       .  A
O2211      C2228   1.289       .  A
O2212     Zr2220   2.385       .  S
O2212      C2227   1.271       .  A
O2213     Zr2218   2.411       .  S
O2213     Zr2220   2.394       .  S
O2214     Zr2219   2.394       .  S
O2214     Zr2220   2.373       .  S
O2214      H2249   0.966       .  S
O2215     Zr2218   2.407       .  S
O2215     Zr2235   2.367       .  S
O2215      H2252   0.959       .  S
O2216     Zr2219   2.384       .  S
O2216     Zr2235   2.393       .  S
Zr2217     O2244   2.441       .  S
Zr2217     O2223   2.392       .  S
Zr2217     O2224   2.414       .  S
Zr2217     O2225   2.378       .  S
Zr2217     O2226   2.381       .  S
Zr2218     O2237   2.436       .  S
Zr2218     O2230   2.435       .  S
Zr2218     O2231   2.482       .  S
Zr2218     O2224   2.395       .  S
Zr2218     O2225   2.400       .  S
Zr2219     O2221   2.435   1_455  S
Zr2219     O2243   2.439       .  S
Zr2219     O2245   2.411       .  S
Zr2219     O2223   2.388       .  S
Zr2219     O2226   2.387       .  S
Zr2220     O2246   2.437       .  S
Zr2220     O2247   2.437       .  S
Zr2220     O2222   2.438       .  S
Zr2220     O2223   2.379       .  S
Zr2220     O2224   2.372       .  S
O2221      H2258   0.990       .  S
O2222      H2253   0.990       .  S
O2222      H2267   0.991       .  S
O2224      H2250   0.963       .  S
O2225     Zr2235   2.391       .  S
O2226     Zr2235   2.371       .  S
O2226      H2251   0.965       .  S
C2227      C2351   1.490       .  S
C2229      C2271   1.527       .  S
O2230      H2266   0.990       .  S
O2232      C2233   1.282       .  A
C2233      C2354   1.483       .  S
O2234     Zr2235   2.441       .  S
O2234      H2263   0.990       .  S
Zr2235     O2238   2.437       .  S
Zr2235     O2239   2.440   1_455  S
Zr2235     O2240   2.397       .  S
O2236      C2241   1.284       .  A
O2237      H2254   0.990       .  S
O2237      H2269   0.990       .  S
O2238      H2255   0.990       .  S
O2239      H2259   0.990       .  S
O2239      H2268   0.989       .  S
O2242      H2261   0.991   1_554  S
O2243      H2257   0.990   1_455  S
O2243      H2264   0.990       .  S
O2246      H2256   0.990       .  S
O2247      H2260   0.990       .  S
C2271      C2272   1.528       .  S
C2271      C2277   1.532       .  S
C2271      C2275   1.541       .  S
C2272      H2279   1.085       .  S
C2272      C2273   1.376       .  D
C2273      C2274   1.545       .  S
C2273      C2305   1.487       .  S
C2274      C2278   1.545       .  S
C2274      C2276   1.537       .  S
C2274      H2280   1.111       .  S
C2275      H2281   1.086       .  S
C2275      C2276   1.377       .  D
C2276      C2311   1.479       .  S
C2277      H2282   1.086       .  S
C2277      C2278   1.360       .  D
C2278      C2365   1.478       .  S
Zr2283     O2284   2.442       .  S
Zr2283     O2285   2.499       .  S
Zr2283     O2286   2.484       .  S
Zr2283     O2289   2.472       .  S
Zr2283     O2291   2.399       .  S
Zr2283     O2292   2.393       .  S
Zr2283     O2293   2.428       .  S
Zr2283     O2294   2.420       .  S
O2284      H2340   0.990       .  S
O2284      H2348   0.991       .  S
O2285      C2305   1.291       .  A
O2286      C2307   1.295       .  A
O2287     Zr2297   2.397       .  S
O2287      C2306   1.276       .  A
O2288     Zr2296   2.455       .  S
O2288      C2307   1.288       .  A
O2289      C2306   1.289       .  A
O2290     Zr2298   2.382       .  S
O2290      C2305   1.270       .  A
O2291     Zr2296   2.411       .  S
O2291     Zr2298   2.390       .  S
O2292     Zr2297   2.389       .  S
O2292     Zr2298   2.374       .  S
O2292      H2327   0.966       .  S
O2293     Zr2296   2.407       .  S
O2293     Zr2313   2.368       .  S
O2293      H2330   0.957       .  S
O2294     Zr2297   2.382       .  S
O2294     Zr2313   2.395       .  S
Zr2295     O2322   2.446       .  S
Zr2295     O2301   2.387       .  S
Zr2295     O2302   2.413       .  S
Zr2295     O2303   2.381       .  S
Zr2295     O2304   2.381       .  S
Zr2296     O2308   2.435       .  S
Zr2296     O2302   2.391       .  S
Zr2296     O2303   2.401       .  S
Zr2297     O2299   2.436       .  S
Zr2297     O2321   2.440       .  S
Zr2297     O2323   2.398       .  S
Zr2297     O2301   2.387       .  S
Zr2297     O2304   2.384       .  S
Zr2298     O2324   2.434       .  S
Zr2298     O2325   2.435       .  S
Zr2298     O2300   2.437       .  S
Zr2298     O2301   2.379       .  S
Zr2298     O2302   2.368       .  S
O2299      H2336   0.990       .  S
O2300      H2331   0.990       .  S
O2300      H2345   0.991       .  S
O2302      H2328   0.964       .  S
O2303     Zr2313   2.393       .  S
O2304     Zr2313   2.376       .  S
O2304      H2329   0.967       .  S
C2307      C2349   1.524       .  S
O2308      H2344   0.990       .  S
O2309      C2311   1.294       .  A
O2310      C2311   1.281       .  A
O2312     Zr2313   2.443       .  S
O2312      H2341   0.990       .  S
Zr2313     O2317   2.444       .  S
O2314      C2319   1.283       .  A
O2315      H2332   0.991       .  S
O2315      H2347   0.990       .  S
O2316      H2333   0.990       .  S
O2317      H2337   0.990       .  S
O2317      H2346   0.990       .  S
O2318      C2319   1.276       .  A
O2320      H2343   0.992       .  S
O2321      H2335   0.990       .  S
O2321      H2342   0.990       .  S
O2322      C2326   1.285       .  A
O2323      C2326   1.275       .  A
O2324      H2334   0.990       .  S
O2325      H2338   0.990       .  S
C2350      C2351   1.377       .  D
C2351      C2352   1.552       .  S
C2352      C2356   1.545       .  S
C2352      C2354   1.542       .  S
C2352      H2358   1.111       .  S
C2353      C2354   1.378       .  D
C2355      H2360   1.085       .  S
C2355      C2356   1.358       .  D
C2356      C2375   1.478       .  S
C2361      C2362   1.404       .  A
C2361      C2366   1.405       .  A
C2361      H2368   1.081       .  S
C2362      C2363   1.418       .  A
C2363      C2364   1.387       .  A
C2363      F2370   1.359       .  S
C2364      C2365   1.392       .  A
C2364      H2369   1.084       .  S
C2365      C2366   1.413       .  A
C2366      F2367   1.357       .  S
C2371      C2372   1.408       .  A
C2371      C2376   1.392       .  A
C2371      H2378   1.079       .  S
C2372      C2373   1.419       .  A
C2373      C2374   1.403       .  A
C2373      F2380   1.358   1_565  S
C2374      C2375   1.400       .  A
C2374      H2379   1.083       .  S
C2375      C2376   1.403       .  A
C2376      F2377   1.358       .  S
C2381      C2382   1.406       .  A
C2381      C2386   1.397       .  A
C2381      H2388   1.083       .  S
C2382      C2383   1.399       .  A
C2383      C2384   1.396       .  A
C2383      F2390   1.354       .  S
C2384      C2385   1.414       .  A
C2384      H2389   1.081       .  S
C2385      C2386   1.411       .  A
C2386      F2387   1.357       .  S
C2391      C2392   1.413       .  A
C2391      C2396   1.396       .  A
C2391      H2398   1.081       .  S
C2392      C2393   1.411       .  A
C2393      C2394   1.400       .  A
C2393      F2400   1.357       .  S
C2394      C2395   1.408       .  A
C2394      H2399   1.083       .  S
C2395      C2396   1.399       .  A
C2396      F2397   1.355       .  S
