geometry optimzed in LAMMPS
_audit_creation_date              2020-11-30 
_audit_creation_method            'lammps2cif' 
_symmetry_space_group_name_H-M    'P1' 
_symmetry_Int_Tables_number       1 
_symmetry_cell_setting            triclinic 
loop_ 
_symmetry_equiv_pos_as_xyz 
  x,y,z 
_cell_length_a                    35.09168751 
_cell_length_b                    34.48341324863475 
_cell_length_c                    34.39935572103545 
_cell_angle_alpha                 90.10578468286351 
_cell_angle_beta                  89.79683331282388 
_cell_angle_gamma                 90.1406289802355 
loop_ 
_atom_site_label 
_atom_site_type_symbol 
_atom_site_fract_x 
_atom_site_fract_y 
_atom_site_fract_z 
_atom_site_charge 
Zn1        Zn  0.02977189  0.52601989  0.96883469     1.49700
Zn2        Zn  0.03232731  0.45900784  0.03088659     1.49400
Zn3        Zn  0.96686665  0.52499167  0.03518343     1.49100
Zn4        Zn  0.96373031  0.45999650  0.97085648     1.49500
O5          O  0.99817177  0.49245199  0.00136771    -1.84100
O6          O  0.08623516  0.51690069  0.97599413    -0.74700
O7          O  0.02495420  0.46874761  0.08714637    -0.74500
O8          O  0.97583467  0.58193820  0.02611029    -0.74000
O9          O  0.08774306  0.47051743  0.02056994    -0.74700
O10         O  0.01940098  0.58257747  0.97928788    -0.74300
O11         O  0.98005764  0.51415311  0.08980430    -0.74900
O12         O  0.90812156  0.47137750  0.98206086    -0.74300
O13         O  0.02221355  0.40218859  0.02066367    -0.75000
O14         O  0.91059130  0.51536683  0.02906468    -0.74400
O15         O  0.97345777  0.40280877  0.97974162    -0.74900
O16         O  0.97235098  0.47073068  0.91476344    -0.74800
O17         O  0.01779299  0.51584452  0.91346672    -0.74600
C18         C  0.10473376  0.49423190  0.99811691     0.77200
C19         C  0.00355394  0.49157868  0.10626038     0.77700
C20         C  0.99741505  0.60040801  0.00277002     0.76600
C21         C  0.89153706  0.49378134  0.00622708     0.77000
C22         C  0.99774933  0.38431781  0.99996460     0.78200
C23         C  0.99449944  0.49341022  0.89622537     0.77200
Zn24       Zn  0.97018888  0.52995113  0.46671989     1.49700
Zn25       Zn  0.03503835  0.46362769  0.47175137     1.49400
Zn26       Zn  0.03075047  0.53028431  0.53485944     1.49100
Zn27       Zn  0.96499784  0.46404072  0.52973691     1.49500
O28         O  0.00029938  0.49703726  0.50086622    -1.84100
O29         O  0.98582895  0.52043959  0.41232653    -0.74700
O30         O  0.08985022  0.47538798  0.48347171    -0.74500
O31         O  0.02095073  0.58721090  0.52502056    -0.74000
O32         O  0.02789772  0.47234074  0.41504841    -0.74700
O33         O  0.97811766  0.58659194  0.47778665    -0.74300
O34         O  0.08773756  0.52010265  0.52984509    -0.74900
O35         O  0.97138034  0.47348919  0.58640436    -0.74300
O36         O  0.02655385  0.40682193  0.48296565    -0.75000
O37         O  0.01552454  0.51991243  0.58945465    -0.74400
O38         O  0.97485892  0.40733986  0.52028217    -0.74900
O39         O  0.91018152  0.47483403  0.51652705    -0.74800
O40         O  0.91374874  0.51942689  0.47031564    -0.74600
C41         C  0.00823474  0.49656426  0.39585798     0.77200
C42         C  0.10662321  0.49772947  0.50742854     0.77700
C43         C  0.99907129  0.60504158  0.50163510     0.76600
C44         C  0.99218061  0.49675295  0.60573357     0.77000
C45         C  0.00082858  0.38899476  0.50208377     0.78200
C46         C  0.89421291  0.49715363  0.49210462     0.77200
Zn47       Zn  0.53282719  0.53667431  0.96886058     1.49700
Zn48       Zn  0.52838508  0.47183971  0.03355622     1.49400
Zn49       Zn  0.46483565  0.53945662  0.02931237     1.49100
Zn50       Zn  0.46642441  0.47127453  0.96700011     1.49500
O51         O  0.49806366  0.50478405  0.99961969    -1.84100
O52         O  0.58790323  0.52571151  0.98140503    -0.74700
O53         O  0.51495641  0.48325827  0.08828472    -0.74500
O54         O  0.47572386  0.59579243  0.01817873    -0.74000
O55         O  0.58491456  0.48142264  0.02794706    -0.74700
O56         O  0.52407232  0.59388913  0.97657220    -0.74300
O57         O  0.47280769  0.53121807  0.08584692    -0.74900
O58         O  0.41038075  0.48081470  0.97643079    -0.74300
O59         O  0.51874054  0.41495499  0.02414977    -0.75000
O60         O  0.40925533  0.52886051  0.01937761    -0.74400
O61         O  0.47603700  0.41426606  0.97684172    -0.74900
O62         O  0.47811141  0.48170101  0.91099351    -0.74800
O63         O  0.52436888  0.52598480  0.91278610    -0.74600
C64         C  0.60423942  0.50350701  0.00572441     0.77200
C65         C  0.49320304  0.50761162  0.10496167     0.77700
C66         C  0.50022973  0.61297551  0.99689376     0.76600
C67         C  0.39198344  0.50436735  0.99799056     0.77000
C68         C  0.49741736  0.39641309  0.00067202     0.78200
C69         C  0.50189386  0.50393241  0.89398363     0.77200
Zn70       Zn  0.46766738  0.47308915  0.46745634     1.49700
Zn71       Zn  0.53313135  0.53948696  0.46730787     1.49400
Zn72       Zn  0.47027673  0.53790061  0.53294442     1.49100
Zn73       Zn  0.53499736  0.47053409  0.52763409     1.49500
O74         O  0.50142923  0.50526319  0.49896803    -1.84100
O75         O  0.47432941  0.48704664  0.41193466    -0.74700
O76         O  0.52537088  0.59578921  0.48001635    -0.74500
O77         O  0.41352147  0.52762805  0.52602443    -0.74000
O78         O  0.52015673  0.53186672  0.41193827    -0.74700
O79         O  0.41261520  0.48128975  0.48123053    -0.74300
O80         O  0.48066459  0.59552412  0.52566407    -0.74900
O81         O  0.52970003  0.48066627  0.58452878    -0.74300
O82         O  0.58897252  0.52824070  0.47211541    -0.75000
O83         O  0.48420804  0.52552632  0.58746486    -0.74400
O84         O  0.59000936  0.47822118  0.51246266    -0.74900
O85         O  0.52249082  0.41425060  0.51854364    -0.74800
O86         O  0.47796046  0.41577136  0.47307913    -0.74600
C87         C  0.49636198  0.51044463  0.39420375     0.77200
C88         C  0.50372756  0.61383312  0.50360019     0.77700
C89         C  0.39522690  0.50381262  0.50461692     0.76600
C90         C  0.50804799  0.50317301  0.60387000     0.77000
C91         C  0.60720634  0.50240108  0.49060259     0.78200
C92         C  0.49988144  0.39685602  0.49547635     0.77200
N93         N  0.99371532  0.95121571  0.04392115    -0.36500
N94         N  0.99761430  0.94982595  0.95766277    -0.57100
N95         N  0.99248269  0.03313370  0.95686040    -0.36500
N96         N  0.99353154  0.03456580  0.04294711    -0.57100
C97         C  0.00242761  0.91357877  0.03720469     0.27000
C98         C  0.99986276  0.95842954  0.08225664     0.27000
C99         C  0.00071127  0.02618170  0.91890255     0.27000
C100        C  0.00042251  0.07091283  0.96397367     0.27000
C101        C  0.99267187  0.91160574  0.96493464     0.35700
C102        C  0.99144819  0.95481416  0.91908657     0.35700
C103        C  0.98685787  0.02927950  0.08142240     0.35700
C104        C  0.98652649  0.07234705  0.03540010     0.35700
C105        C  0.01392262  0.89651388  0.07172207    -0.21800
C106        C  0.01245336  0.92478240  0.10003620    -0.21800
C107        C  0.01386126  0.05999486  0.90170887    -0.21800
C108        C  0.01367004  0.08819850  0.93009495    -0.21800
C109        C  0.98389204  0.89219480  0.93073477    -0.22900
C110        C  0.98293171  0.91955369  0.90179083    -0.22900
C111        C  0.97549976  0.06390110  0.09830670    -0.22900
C112        C  0.97545269  0.09117969  0.06924332    -0.22900
C113        C  0.99775145  0.89345065  0.00149734    -0.18200
C114        C  0.99304232  0.99414533  0.10186116    -0.18200
C115        C  0.99335038  0.09089437  0.99933078    -0.18200
C116        C  0.99521661  0.99052367  0.89903389    -0.18200
H117        H  0.02226087  0.86665028  0.07615148     0.14700
H118        H  0.01966793  0.92085592  0.13032974     0.14700
H119        H  0.02262694  0.06397674  0.87177957     0.14700
H120        H  0.02196351  0.11817588  0.92606977     0.14700
H121        H  0.97870074  0.86146273  0.92698420     0.13000
H122        H  0.97675956  0.91402544  0.87148211     0.13000
H123        H  0.96834139  0.06911367  0.12848580     0.13000
H124        H  0.96855732  0.12155968  0.07277359     0.13000
H125        H  0.98038789  0.96944580  0.02425689     0.26200
H126        H  0.97817894  0.01453756  0.97566897     0.26200
N127        N  0.99992932  0.95431566  0.54316312    -0.36500
N128        N  0.99871913  0.95565662  0.45682109    -0.57100
N129        N  0.99846402  0.03890489  0.45871408    -0.36500
N130        N  0.99506508  0.03762884  0.54506060    -0.57100
C131        C  0.99498990  0.91619562  0.53529238     0.27000
C132        C  0.99318056  0.95953129  0.58175246     0.27000
C133        C  0.99065688  0.03277987  0.42047437     0.27000
C134        C  0.98954077  0.07619885  0.46696029     0.27000
C135        C  0.00519513  0.91751215  0.46279826     0.35700
C136        C  0.00410424  0.96216125  0.41831896     0.35700
C137        C  0.00008013  0.03136956  0.58363122     0.35700
C138        C  0.00040698  0.07600936  0.53910131     0.35700
C139        C  0.98569878  0.89684454  0.56942803    -0.21800
C140        C  0.98472901  0.92409106  0.59866219    -0.21800
C141        C  0.97686675  0.06668910  0.40429949    -0.21800
C142        C  0.97603846  0.09398744  0.43357172    -0.21800
C143        C  0.01452817  0.89966827  0.42785210    -0.22900
C144        C  0.01378832  0.92791257  0.39971811    -0.22900
C145        C  0.00789413  0.06602616  0.60235028    -0.22900
C146        C  0.00863978  0.09414706  0.57418653    -0.22900
C147        C  0.00044982  0.89786193  0.49868894    -0.18200
C148        C  0.99626223  0.99504290  0.60245655    -0.18200
C149        C  0.99556288  0.09541244  0.50304239    -0.18200
C150        C  0.99756537  0.99799934  0.39942752    -0.18200
H151        H  0.98046902  0.86611737  0.57307622     0.14700
H152        H  0.97870103  0.91829610  0.62897418     0.14700
H153        H  0.96846558  0.07141445  0.37444684     0.14700
H154        H  0.96677730  0.12373564  0.43049726     0.14700
H155        H  0.02081009  0.86931908  0.42303367     0.13000
H156        H  0.01923896  0.92358771  0.36903125     0.13000
H157        H  0.01276549  0.07063418  0.63306017     0.13000
H158        H  0.01434356  0.12457724  0.57924188     0.13000
H159        H  0.01089205  0.97452890  0.52396249     0.26200
H160        H  0.01323094  0.02048490  0.47702047     0.26200
N161        N  0.50680286  0.96363368  0.95387972    -0.36500
N162        N  0.50526125  0.96149759  0.04027984    -0.57100
N163        N  0.51015936  0.04517674  0.04218332    -0.36500
N164        N  0.50663413  0.04717970  0.95576294    -0.57100
C165        C  0.49908982  0.92569408  0.96005975     0.27000
C166        C  0.50115133  0.97084195  0.91553481     0.27000
C167        C  0.50612568  0.03823616  0.08086319     0.27000
C168        C  0.50531888  0.08366743  0.03640495     0.27000
C169        C  0.50782354  0.92310772  0.03270528     0.35700
C170        C  0.50999668  0.96586822  0.07914794     0.35700
C171        C  0.51002068  0.04259510  0.91672263     0.35700
C172        C  0.50996576  0.08558435  0.96307333     0.35700
C173        C  0.48880206  0.90845545  0.92510655    -0.21800
C174        C  0.49019947  0.93686027  0.89708134    -0.21800
C175        C  0.49974809  0.07303913  0.09999361    -0.21800
C176        C  0.49917969  0.10158994  0.07207006    -0.21800
C177        C  0.51369346  0.90295805  0.06706141    -0.22900
C178        C  0.51499447  0.92998473  0.09639788    -0.22900
C179        C  0.51502998  0.07832813  0.89912582    -0.22900
C180        C  0.51486856  0.10550154  0.92835927    -0.22900
C181        C  0.50319091  0.90546688  0.99570769    -0.18200
C182        C  0.50662871  0.00690853  0.89642998    -0.18200
C183        C  0.50719074  0.10353096  0.00019818    -0.18200
C184        C  0.50849381  0.00157864  0.09962722    -0.18200
H185        H  0.48134386  0.87837480  0.92017116     0.14700
H186        H  0.48386387  0.93287597  0.86656335     0.14700
H187        H  0.49569801  0.07746248  0.13089008     0.14700
H188        H  0.49470604  0.13216550  0.07752431     0.14700
H189        H  0.51650010  0.87192660  0.07071280     0.13000
H190        H  0.51909363  0.92387033  0.12694775     0.13000
H191        H  0.51800671  0.08429034  0.86838307     0.13000
H192        H  0.51791245  0.13648799  0.92441393     0.13000
H193        H  0.51928699  0.98217460  0.97386947     0.26200
H194        H  0.51860122  0.02549668  0.02116371     0.26200
N195        N  0.50107794  0.04597555  0.45387429    -0.36500
N196        N  0.50576612  0.04860400  0.54037660    -0.57100
N197        N  0.50629845  0.96538706  0.54212246    -0.36500
N198        N  0.50741302  0.96285550  0.45570861    -0.57100
C199        C  0.50702671  0.08421955  0.46025293     0.27000
C200        C  0.50827183  0.03892683  0.41566688     0.27000
C201        C  0.51395777  0.97291360  0.58007564     0.27000
C202        C  0.51431296  0.92760774  0.53556603     0.27000
C203        C  0.49761435  0.08610977  0.53272623     0.35700
C204        C  0.50140803  0.04378558  0.57928397     0.35700
C205        C  0.50080292  0.96727440  0.41713827     0.35700
C206        C  0.50209520  0.92483532  0.46371649     0.35700
C207        C  0.51770691  0.10182883  0.42560448    -0.21800
C208        C  0.51859482  0.07328989  0.39757299    -0.21800
C209        C  0.52677619  0.93935359  0.59781231    -0.21800
C210        C  0.52694600  0.91080122  0.56981025    -0.21800
C211        C  0.48838865  0.10526515  0.56700805    -0.22900
C212        C  0.49080831  0.07848489  0.59644016    -0.22900
C213        C  0.49155123  0.93185753  0.40059297    -0.22900
C214        C  0.49236786  0.90501682  0.43003152    -0.22900
C215        C  0.50106477  0.10419729  0.49586481    -0.18200
C216        C  0.50438843  0.00262520  0.39641015    -0.18200
C217        C  0.50811736  0.90711686  0.50035202    -0.18200
C218        C  0.50797079  0.00870409  0.59961609    -0.18200
H219        H  0.52409011  0.13219225  0.42091767     0.14700
H220        H  0.52593837  0.07746299  0.36728378     0.14700
H221        H  0.53490880  0.93569650  0.62790112     0.14700
H222        H  0.53512503  0.88090229  0.57429350     0.14700
H223        H  0.48094007  0.13551559  0.57050954     0.13000
H224        H  0.48535119  0.08395070  0.62694422     0.13000
H225        H  0.48479832  0.92594275  0.37048535     0.13000
H226        H  0.48661136  0.87432026  0.42692302     0.13000
H227        H  0.48888635  0.02691490  0.47371676     0.26200
H228        H  0.49227482  0.98346099  0.52278855     0.26200
C229        C  0.47421200  0.01358012  0.79082340    -0.10800
C230        C  0.50854322  0.00855976  0.76999444     0.06400
C231        C  0.54230700  0.00316862  0.79140437    -0.09500
C232        C  0.54162476  0.00246508  0.83230142    -0.11200
C233        C  0.50727831  0.00747523  0.85281105    -0.01000
C234        C  0.47362337  0.01317517  0.83166789    -0.10100
C235        C  0.50884930  0.00858583  0.72625829     0.06400
H236        H  0.56919530  0.99883022  0.77651180     0.08300
H237        H  0.56793501  0.99799272  0.84801504     0.11800
H238        H  0.44684450  0.01726077  0.84685291     0.12000
H239        H  0.44774662  0.01830926  0.77549175     0.08300
C240        C  0.47955339  0.99010517  0.70524472    -0.10800
C241        C  0.47940867  0.99022855  0.66441851    -0.10100
C242        C  0.50833703  0.00910925  0.64334246    -0.01000
C243        C  0.53770335  0.02761692  0.66409260    -0.11200
C244        C  0.53808564  0.02717845  0.70502772    -0.09600
H245        H  0.45688083  0.97502571  0.72041823     0.08300
H246        H  0.45658778  0.97556253  0.64915472     0.12000
H247        H  0.56043119  0.04225998  0.64855233     0.11800
H248        H  0.56096260  0.04194711  0.72008818     0.08300
C249        C  0.47268049  0.99479582  0.20436787    -0.10800
C250        C  0.50648233  0.99901032  0.22602019     0.06400
C251        C  0.54104815  0.00351167  0.20547211    -0.09500
C252        C  0.54169925  0.00439826  0.16460917    -0.11200
C253        C  0.50788633  0.00044448  0.14323868    -0.01000
C254        C  0.47341978  0.99533346  0.16350608    -0.10100
C255        C  0.50565377  0.99939255  0.26972209     0.06400
H256        H  0.56757500  0.00717700  0.22103905     0.08300
H257        H  0.56861236  0.00829855  0.14960313     0.11800
H258        H  0.44702416  0.99197039  0.14762069     0.12000
H259        H  0.44562712  0.99075832  0.21905605     0.08300
C260        C  0.47685419  0.01935927  0.29017340    -0.10800
C261        C  0.47654942  0.02052925  0.33103267    -0.10100
C262        C  0.50483310  0.00151374  0.35263529    -0.01000
C263        C  0.53346484  0.98130841  0.33232943    -0.11200
C264        C  0.53393812  0.98034048  0.29146411    -0.09600
H265        H  0.45485338  0.03471697  0.27453088     0.08300
H266        H  0.45414499  0.03629574  0.34588014     0.12000
H267        H  0.55558732  0.96634639  0.34819910     0.11800
H268        H  0.55630662  0.96432814  0.27684641     0.08300
C269        C  0.96010966  0.99067857  0.70732832    -0.10800
C270        C  0.99421367  0.99261742  0.72882803     0.06400
C271        C  0.02884940  0.99547566  0.70812847    -0.09500
C272        C  0.02942405  0.99617942  0.66732787    -0.11200
C273        C  0.99541959  0.99411920  0.64606198    -0.01000
C274        C  0.96073429  0.99138841  0.66644656    -0.10100
C275        C  0.99391139  0.99157857  0.77251218     0.06400
H276        H  0.05562122  0.99768023  0.72351681     0.08300
H277        H  0.05647542  0.99851094  0.65225502     0.11800
H278        H  0.93414259  0.98968209  0.65064452     0.12000
H279        H  0.93293432  0.98803930  0.72209519     0.08300
C280        C  0.96575892  0.01123392  0.79418870    -0.10800
C281        C  0.96622097  0.01088178  0.83505606    -0.10100
C282        C  0.99462030  0.99062940  0.85534756    -0.01000
C283        C  0.02257312  0.97079324  0.83384065    -0.11200
C284        C  0.02223206  0.97125262  0.79303282    -0.09600
H285        H  0.94373939  0.02753318  0.77956463     0.08300
H286        H  0.94437824  0.02647667  0.85093732     0.12000
H287        H  0.04480256  0.95500928  0.84872354     0.11800
H288        H  0.04405646  0.95532719  0.77750211     0.08300
C289        C  0.96794161  0.97418064  0.20848597    -0.10800
C290        C  0.99457653  0.99725693  0.22878348     0.06400
C291        C  0.02070463  0.01924515  0.20659774    -0.09500
C292        C  0.02026113  0.01810100  0.16572937    -0.11200
C293        C  0.99362842  0.99506895  0.14567772    -0.01000
C294        C  0.96747861  0.97313735  0.16759975    -0.10100
C295        C  0.99524727  0.99817354  0.27268347     0.06400
H296        H  0.04130497  0.03784416  0.22077956     0.08300
H297        H  0.04076006  0.03533427  0.14964297     0.11800
H298        H  0.94662579  0.95513195  0.15298599     0.12000
H299        H  0.94770075  0.95634142  0.22418176     0.08300
C300        C  0.96133606  0.99501744  0.29468012    -0.10800
C301        C  0.96206488  0.99524480  0.33558262    -0.10100
C302        C  0.99664906  0.99881141  0.35573332    -0.01000
C303        C  0.03050572  0.00222516  0.33409123    -0.11200
C304        C  0.02985255  0.00189668  0.29319138    -0.09600
H305        H  0.93403743  0.99274119  0.28031152     0.08300
H306        H  0.93556266  0.99259572  0.35159255     0.12000
H307        H  0.05756469  0.00475007  0.34893405     0.11800
H308        H  0.05666640  0.00379252  0.27766951     0.08300
C309        C  0.51541715  0.29235320  0.52495561    -0.10800
C310        C  0.49820907  0.27190883  0.49428000     0.06400
C311        C  0.48094756  0.29293955  0.46413910    -0.09500
C312        C  0.48128788  0.33354159  0.46452148    -0.11200
C313        C  0.49902152  0.35390692  0.49497854    -0.01000
C314        C  0.51595599  0.33283139  0.52522762    -0.10100
C315        C  0.49888407  0.22883291  0.49371900     0.06400
H316        H  0.46779732  0.27800780  0.43991270     0.08300
H317        H  0.46810513  0.34897708  0.44072636     0.11800
H318        H  0.52944379  0.34763494  0.54934365     0.12000
H319        H  0.52829121  0.27700677  0.54898022     0.08300
C320        C  0.53187730  0.20884626  0.50519854    -0.10800
C321        C  0.53249896  0.16838174  0.50577544    -0.10100
C322        C  0.50024360  0.14714860  0.49471830    -0.01000
C323        C  0.46737542  0.16676477  0.48273194    -0.11200
C324        C  0.46666514  0.20734378  0.48225428    -0.09600
H325        H  0.55734952  0.22453504  0.51350617     0.08300
H326        H  0.55814296  0.15353875  0.51481104     0.12000
H327        H  0.44224791  0.15062750  0.47414779     0.11800
H328        H  0.44074184  0.22189834  0.47361818     0.08300
C329        C  0.48900619  0.71843658  0.53540793    -0.10800
C330        C  0.50840300  0.73902978  0.50601226     0.06400
C331        C  0.52677881  0.71783392  0.47645912    -0.09500
C332        C  0.52557745  0.67734186  0.47609714    -0.11200
C333        C  0.50555295  0.65683310  0.50497323    -0.01000
C334        C  0.48740754  0.67783794  0.53476347    -0.10100
C335        C  0.50876440  0.78232432  0.50548007     0.06400
H336        H  0.54141101  0.73248172  0.45293087     0.08300
H337        H  0.53981943  0.66210618  0.45265884     0.11800
H338        H  0.47209484  0.66290586  0.55768529     0.12000
H339        H  0.47517160  0.73363819  0.55909761     0.08300
C340        C  0.47684478  0.80354670  0.51832931    -0.10800
C341        C  0.47677394  0.84406223  0.51680183    -0.10100
C342        C  0.50838858  0.86414382  0.50203592    -0.01000
C343        C  0.54031730  0.84337312  0.48925633    -0.11200
C344        C  0.54062728  0.80287210  0.49116903    -0.09600
H345        H  0.45154683  0.78889079  0.52885780     0.08300
H346        H  0.45190226  0.85981294  0.52674802     0.12000
H347        H  0.56504792  0.85859125  0.47804686     0.11800
H348        H  0.56600009  0.78772804  0.48170936     0.08300
C349        C  0.53654234  0.20914752  0.00571416    -0.10800
C350        C  0.50141274  0.22820168  0.00118365     0.06400
C351        C  0.46818054  0.20579618  0.99652321    -0.09500
C352        C  0.47006494  0.16527119  0.99651242    -0.11200
C353        C  0.50516696  0.14651703  0.00108576    -0.01000
C354        C  0.53838766  0.16864243  0.00565113    -0.10100
C355        C  0.49957316  0.27127218  0.00144577     0.06400
H356        H  0.44069592  0.21961954  0.99336428     0.08300
H357        H  0.44419321  0.14846752  0.99293069     0.11800
H358        H  0.56571456  0.15450021  0.00888850     0.12000
H359        H  0.56267747  0.22560811  0.00879270     0.08300
C360        C  0.52102426  0.29275888  0.02837714    -0.10800
C361        C  0.52007064  0.33327407  0.02825612    -0.10100
C362        C  0.49768147  0.35335484  0.00112979    -0.01000
C363        C  0.47587173  0.33185414  0.97441821    -0.11200
C364        C  0.47676544  0.29125750  0.97462179    -0.09600
H365        H  0.53839242  0.27818276  0.04978928     0.08300
H366        H  0.53700419  0.34886145  0.04942891     0.12000
H367        H  0.45833445  0.34638120  0.95311702     0.11800
H368        H  0.46016940  0.27549708  0.95329593     0.08300
C369        C  0.52259261  0.71632029  0.96646052    -0.10800
C370        C  0.50191685  0.73784921  0.99410771     0.06400
C371        C  0.48105793  0.71793364  0.02276822    -0.09500
C372        C  0.48050585  0.67746174  0.02356901    -0.11200
C373        C  0.50101505  0.65590059  0.99588298    -0.01000
C374        C  0.52221073  0.67575910  0.96738372    -0.10100
C375        C  0.50203111  0.78090647  0.99328312     0.06400
H376        H  0.46544995  0.73367650  0.04492104     0.08300
H377        H  0.46421800  0.66305334  0.04612839     0.11800
H378        H  0.53818884  0.65996198  0.94553610     0.12000
H379        H  0.53861670  0.73082738  0.94376986     0.08300
C380        C  0.53580771  0.80154401  0.98540810    -0.10800
C381        C  0.53601140  0.84207121  0.98582359    -0.10100
C382        C  0.50252361  0.86255336  0.99415305    -0.01000
C383        C  0.46868498  0.84224460  0.00160550    -0.11200
C384        C  0.46840528  0.80173587  0.00109270    -0.09600
H385        H  0.56222823  0.78636496  0.97974601     0.08300
H386        H  0.56235109  0.85752638  0.98014025     0.12000
H387        H  0.44260361  0.85780260  0.00791265     0.11800
H388        H  0.44182958  0.78668689  0.00664696     0.08300
C389        C  0.49366997  0.47169206  0.78969429    -0.10800
C390        C  0.50991315  0.50338224  0.77026903     0.06400
C391        C  0.52297700  0.53546002  0.79145477    -0.09500
C392        C  0.52026524  0.53565850  0.83181646    -0.07600
C393        C  0.50389607  0.50400678  0.85140710    -0.01000
C394        C  0.49033528  0.47214605  0.83005197    -0.10100
C395        C  0.51141382  0.50385003  0.72776018     0.06400
H396        H  0.53542076  0.56020705  0.77672231     0.08300
H397        H  0.53070901  0.56066518  0.84766784     0.11800
H398        H  0.47766724  0.44740232  0.84456390     0.12000
H399        H  0.48300009  0.44696507  0.77355559     0.08300
C400        C  0.52838538  0.47327944  0.70715535    -0.10800
C401        C  0.52816567  0.47331555  0.66661182    -0.10100
C402        C  0.51035134  0.50362229  0.64642844    -0.01000
C403        C  0.49384369  0.53434910  0.66729117    -0.11200
C404        C  0.49459276  0.53456426  0.70765093    -0.09600
H405        H  0.54165081  0.44946355  0.72246442     0.08300
H406        H  0.54113758  0.44932714  0.65114109     0.12000
H407        H  0.48016204  0.55819288  0.65243294     0.11800
H408        H  0.48120562  0.55824210  0.72324870     0.08300
C409        C  0.46477845  0.53277608  0.20760700    -0.10800
C410        C  0.49192214  0.51185405  0.22861908     0.06400
C411        C  0.51881504  0.48902556  0.20912885    -0.09500
C412        C  0.51880574  0.48726334  0.16883359    -0.11200
C413        C  0.49211332  0.50866618  0.14750518    -0.01000
C414        C  0.46499950  0.53139388  0.16716394    -0.10100
C415        C  0.49237520  0.51354976  0.27097215     0.06400
H416        H  0.53966253  0.47240219  0.22516219     0.08300
H417        H  0.53999372  0.46948685  0.15442078     0.11800
H418        H  0.44405893  0.54807954  0.15135278     0.12000
H419        H  0.44389109  0.55055458  0.22249576     0.08300
C420        C  0.52626585  0.52281080  0.29031103    -0.10800
C421        C  0.52732648  0.52260325  0.33066355    -0.10100
C422        C  0.49465706  0.51245279  0.35194347    -0.01000
C423        C  0.46067981  0.50344448  0.33255339    -0.11200
C424        C  0.45945106  0.50436700  0.29217222    -0.09600
H425        H  0.55185453  0.53003361  0.27413017     0.08300
H426        H  0.55385836  0.52943256  0.34519059     0.12000
H427        H  0.43516634  0.49573258  0.34861499     0.11800
H428        H  0.43318511  0.49694723  0.27743956     0.08300
C429        C  0.03428445  0.28457387  0.49824574    -0.10800
C430        C  0.00000463  0.26401512  0.50436390     0.06400
C431        C  0.96628217  0.28538022  0.51010440    -0.09500
C432        C  0.96680995  0.32585741  0.50999164    -0.11200
C433        C  0.00083825  0.34614948  0.50310009    -0.01000
C434        C  0.03459047  0.32515283  0.49713882    -0.10100
C435        C  0.99912043  0.22065705  0.50424961     0.06400
H436        H  0.93911074  0.27099243  0.51391070     0.08300
H437        H  0.94030338  0.34131388  0.51438050     0.11800
H438        H  0.06133814  0.34012739  0.49219535     0.12000
H439        H  0.06104875  0.26946482  0.49463180     0.08300
C440        C  0.02496728  0.19916209  0.48138384    -0.10800
C441        C  0.02377402  0.15862659  0.48108566    -0.10100
C442        C  0.99631003  0.13861619  0.50301802    -0.01000
C443        C  0.97007480  0.15980020  0.52531395    -0.11200
C444        C  0.97185748  0.20025304  0.52646805    -0.09600
H445        H  0.04584779  0.21351127  0.46318079     0.08300
H446        H  0.04423013  0.14277802  0.46359752     0.12000
H447        H  0.94858903  0.14490069  0.54238546     0.11800
H448        H  0.95200183  0.21537097  0.54519532     0.08300
C449        C  0.97799933  0.70880207  0.47261270    -0.10800
C450        C  0.99693103  0.73005506  0.50168051     0.06400
C451        C  0.01573648  0.70967085  0.53134863    -0.09500
C452        C  0.01640816  0.66914182  0.53139583    -0.11200
C453        C  0.99791311  0.64798912  0.50203276    -0.01000
C454        C  0.97834220  0.66828391  0.47288893    -0.10100
C455        C  0.99782895  0.77321460  0.50055187     0.06400
H456        H  0.02987395  0.72501683  0.55470554     0.08300
H457        H  0.03136288  0.65438343  0.55451671     0.11800
H458        H  0.96379187  0.65286663  0.44982496     0.12000
H459        H  0.96365170  0.72342203  0.44902672     0.08300
C460        C  0.03062554  0.79362977  0.51236506    -0.10800
C461        C  0.03162875  0.83410231  0.51126807    -0.10100
C462        C  0.00004381  0.85490437  0.49801134    -0.01000
C463        C  0.96738915  0.83489776  0.48584717    -0.11200
C464        C  0.96620035  0.79440433  0.48723885    -0.09600
H465        H  0.05575009  0.77835121  0.52206181     0.08300
H466        H  0.05698600  0.84927812  0.52083952     0.12000
H467        H  0.94265107  0.85072056  0.47590293     0.11800
H468        H  0.94027833  0.77977560  0.47849705     0.08300
C469        C  0.79038338  0.48469177  0.51885970    -0.10800
C470        C  0.77181325  0.49810515  0.48536199     0.06400
C471        C  0.79390392  0.51149183  0.45393241    -0.09500
C472        C  0.83374681  0.51129195  0.45601664    -0.11200
C473        C  0.85217633  0.49743922  0.48944489    -0.01000
C474        C  0.83006042  0.48413104  0.52078006    -0.10100
C475        C  0.72954913  0.49821672  0.48380298     0.06400
H476        H  0.78040311  0.52167539  0.42761103     0.08300
H477        H  0.85013270  0.52156023  0.43134424     0.11800
H478        H  0.84344528  0.47379242  0.54710832     0.12000
H479        H  0.77418871  0.47503801  0.54390204     0.08300
C480        C  0.70872352  0.46726947  0.49988395    -0.10800
C481        C  0.66903668  0.46845675  0.50153559    -0.10100
C482        C  0.64916356  0.50050215  0.48687406    -0.01000
C483        C  0.66983085  0.53084991  0.46936713    -0.11200
C484        C  0.70967211  0.52975327  0.46791884    -0.09600
H485        H  0.72318458  0.44216002  0.51152363     0.08300
H486        H  0.65392960  0.44433647  0.51461312     0.12000
H487        H  0.65529088  0.55590013  0.45768142     0.11800
H488        H  0.72493047  0.55413239  0.45552939     0.08300
C489        C  0.20856889  0.51035615  0.54238235    -0.10800
C490        C  0.22965654  0.49728920  0.50999115     0.06400
C491        C  0.20963368  0.48396709  0.47718284    -0.09500
C492        C  0.16982386  0.48381265  0.47669414    -0.11200
C493        C  0.14885439  0.49754217  0.50872484    -0.01000
C494        C  0.16863205  0.51077408  0.54162904    -0.10100
C495        C  0.27223553  0.49830881  0.50985750     0.06400
H496        H  0.22466545  0.47439811  0.45138328     0.08300
H497        H  0.15542506  0.47362562  0.45080114     0.11800
H498        H  0.15322395  0.52106374  0.56694101     0.12000
H499        H  0.22288394  0.52008429  0.56846781     0.08300
C500        C  0.29222470  0.52838857  0.52866080    -0.10800
C501        C  0.33209436  0.53006821  0.52730029    -0.10100
C502        C  0.35298659  0.50191529  0.50681187    -0.01000
C503        C  0.33309270  0.47171607  0.48822527    -0.11200
C504        C  0.29332023  0.46979295  0.48993614    -0.09600
H505        H  0.27707182  0.55123069  0.54374472     0.08300
H506        H  0.34652064  0.55377965  0.54181821     0.12000
H507        H  0.34827996  0.44931748  0.47246209     0.11800
H508        H  0.27914603  0.44572858  0.47577321     0.08300
C509        C  0.01983517  0.27954135  0.02520009    -0.10800
C510        C  0.99662030  0.25904162  0.99894227     0.06400
C511        C  0.97401965  0.28021114  0.97283287    -0.09500
C512        C  0.97438585  0.32078352  0.97316057    -0.11200
C513        C  0.99751970  0.34124859  0.99947373    -0.01000
C514        C  0.02034903  0.32012468  0.02539913    -0.10100
C515        C  0.99583351  0.21581400  0.99886836     0.06400
H516        H  0.95630778  0.26540767  0.95177266     0.08300
H517        H  0.95666286  0.33611864  0.95260309     0.11800
H518        H  0.03838011  0.33495038  0.04617478     0.12000
H519        H  0.03719390  0.26422449  0.04608238     0.08300
C520        C  0.02940204  0.19439285  0.00492298    -0.10800
C521        C  0.02856441  0.15382535  0.00497583    -0.10100
C522        C  0.99424224  0.13392962  0.99879802    -0.01000
C523        C  0.96071467  0.15498770  0.99264694    -0.11200
C524        C  0.96145818  0.19555752  0.99277633    -0.09600
H525        H  0.05642769  0.20897454  0.00915571     0.08300
H526        H  0.05468783  0.13787552  0.00970089     0.12000
H527        H  0.93395672  0.13996172  0.98808563     0.11800
H528        H  0.93499688  0.21106484  0.98866452     0.08300
C529        C  0.96382170  0.78973523  0.01232555    -0.10800
C530        C  0.99682867  0.76861706  0.00275363     0.06400
C531        C  0.03033704  0.78910407  0.99319694    -0.09500
C532        C  0.03073307  0.82965583  0.99295071    -0.11200
C533        C  0.99774120  0.85043446  0.00252069    -0.01000
C534        C  0.96433639  0.83028898  0.01228524    -0.10100
C535        C  0.99638247  0.72545309  0.00258790     0.06400
H536        H  0.05639486  0.77378750  0.98628440     0.08300
H537        H  0.05674412  0.84487788  0.98537649     0.11800
H538        H  0.93857859  0.84604018  0.01945012     0.12000
H539        H  0.93742375  0.77493007  0.01924502     0.08300
C540        C  0.97608650  0.70462203  0.03108717    -0.10800
C541        C  0.97627919  0.66404299  0.03114228    -0.10100
C542        C  0.99687572  0.64338057  0.00276475    -0.01000
C543        C  0.01693358  0.66419922  0.97416787    -0.11200
C544        C  0.01658566  0.70470087  0.97400648    -0.09600
H545        H  0.96058398  0.71967840  0.05378873     0.08300
H546        H  0.96057691  0.64888085  0.05363999     0.12000
H547        H  0.03280243  0.64919356  0.95168930     0.11800
H548        H  0.03189971  0.71978069  0.95119829     0.08300
C549        C  0.70534675  0.48231302  0.03881811    -0.10800
C550        C  0.72690306  0.50103560  0.00992444     0.06400
C551        C  0.70801350  0.52140284  0.98049681    -0.09500
C552        C  0.66825347  0.52274100  0.97962475    -0.11200
C553        C  0.64645617  0.50321869  0.00786230    -0.01000
C554        C  0.66544851  0.48312492  0.03763829    -0.10100
C555        C  0.76900175  0.49856319  0.00955965     0.06400
H556        H  0.72411999  0.53631385  0.95812084     0.08300
H557        H  0.65459048  0.53859061  0.95640097     0.11800
H558        H  0.64950288  0.46791190  0.05992144     0.12000
H559        H  0.71938869  0.46631981  0.06172205     0.08300
C560        C  0.79034071  0.50939461  0.04227695    -0.10800
C561        C  0.83021593  0.50812003  0.04114696    -0.10100
C562        C  0.84937347  0.49507310  0.00759654    -0.01000
C563        C  0.82787287  0.48376144  0.97510739    -0.11200
C564        C  0.78810640  0.48586242  0.97596399    -0.09600
H565        H  0.77615824  0.51948985  0.06840646     0.08300
H566        H  0.84606210  0.51702256  0.06662161     0.12000
H567        H  0.84183297  0.47385666  0.94878768     0.11800
H568        H  0.77216017  0.47727227  0.95044197     0.08300
C569        C  0.20660449  0.49359300  0.03364746    -0.10800
C570        C  0.22707077  0.49890582  0.99889980     0.06400
C571        C  0.20699156  0.50279624  0.96385063    -0.09500
C572        C  0.16713968  0.50176644  0.96359690    -0.11200
C573        C  0.14674815  0.49577958  0.99824329    -0.01000
C574        C  0.16679632  0.49153617  0.03324198    -0.10100
C575        C  0.26926903  0.50011756  0.99908078     0.06400
H576        H  0.22217255  0.50713263  0.93673019     0.08300
H577        H  0.15225128  0.50503797  0.93627467     0.11800
H578        H  0.15160442  0.48718673  0.06035994     0.12000
H579        H  0.22146248  0.49038496  0.06099476     0.08300
C580        C  0.28888433  0.52398770  0.02543466    -0.10800
C581        C  0.32873097  0.52560719  0.02496087    -0.10100
C582        C  0.34974735  0.50300510  0.99840989    -0.01000
C583        C  0.32999237  0.47873113  0.97245996    -0.11200
C584        C  0.29018752  0.47748912  0.97265169    -0.09600
H585        H  0.27333595  0.54183579  0.04597996     0.08300
H586        H  0.34305387  0.54448793  0.04545717     0.12000
H587        H  0.34527719  0.46078772  0.95180907     0.11800
H588        H  0.27568314  0.45853629  0.95235131     0.08300
C589        C  0.00019758  0.52935602  0.70947556    -0.10800
C590        C  0.98908401  0.49574919  0.72953085     0.06400
C591        C  0.97735280  0.46290274  0.70848614    -0.09500
C592        C  0.97732805  0.46351762  0.66802502    -0.11200
C593        C  0.98963596  0.49675120  0.64814654    -0.01000
C594        C  0.00077118  0.52973970  0.66910893    -0.10100
C595        C  0.99045467  0.49487821  0.77226795     0.06400
H596        H  0.96911308  0.43645130  0.72323532     0.08300
H597        H  0.96882593  0.43766820  0.65232021     0.11800
H598        H  0.00989265  0.55586630  0.65427748     0.12000
H599        H  0.00848984  0.55537769  0.72498237     0.08300
C600        C  0.02047661  0.51321548  0.79201542    -0.10800
C601        C  0.02167520  0.51289118  0.83237940    -0.10100
C602        C  0.99314335  0.49376766  0.85367096    -0.01000
C603        C  0.96331538  0.47508716  0.83398443    -0.11200
C604        C  0.96188828  0.47579211  0.79358526    -0.09600
H605        H  0.04330322  0.52746586  0.77626771     0.08300
H606        H  0.04515454  0.52728176  0.84686155     0.12000
H607        H  0.94083339  0.46032096  0.84978206     0.11800
H608        H  0.93815204  0.46189431  0.77908772     0.08300
C609        C  0.97866348  0.50899546  0.21077341    -0.10800
C610        C  0.01164153  0.49589552  0.22954913     0.06400
C611        C  0.04190619  0.48082706  0.20748821    -0.09500
C612        C  0.03912659  0.47885976  0.16719461    -0.11200
C613        C  0.00624278  0.49236461  0.14856569    -0.01000
C614        C  0.97610766  0.50752197  0.17058906    -0.10100
C615        C  0.01371858  0.49725893  0.27214483     0.06400
H616        H  0.06778867  0.47095598  0.22132785     0.08300
H617        H  0.06288074  0.46741362  0.15061046     0.11800
H618        H  0.95035276  0.51782670  0.15679118     0.12000
H619        H  0.95455786  0.51988855  0.22717919     0.08300
C620        C  0.02917724  0.46609049  0.29294043    -0.10800
C621        C  0.02813652  0.46612917  0.33337988    -0.10100
C622        C  0.01130827  0.49716807  0.35344274    -0.01000
C623        C  0.99681634  0.52877312  0.33263763    -0.11200
C624        C  0.99829993  0.52895512  0.29233481    -0.09600
H625        H  0.04087795  0.44113212  0.27798700     0.08300
H626        H  0.03951711  0.44143419  0.34885808     0.12000
H627        H  0.98419322  0.55334321  0.34747743     0.11800
H628        H  0.98700139  0.55374127  0.27693955     0.08300
loop_ 
_geom_bond_atom_site_label_1 
_geom_bond_atom_site_label_2 
_geom_bond_distance 
_geom_bond_site_symmetry_2 
_ccdc_geom_bond_type 
Zn1           O5   1.952   1_456  S
Zn1           O6   2.023       .  S
Zn1          O10   2.016       .  S
Zn1          O17   1.982       .  S
Zn2           O5   1.954   1_455  S
Zn2           O7   1.980       .  S
Zn2           O9   2.014       .  S
Zn2          O13   2.021       .  S
Zn3           O5   1.952       .  S
Zn3           O8   2.013       .  S
Zn3          O11   1.973       .  S
Zn3          O14   2.013       .  S
Zn4           O5   1.953   1_556  S
Zn4          O12   2.027       .  S
Zn4          O15   2.026       .  S
Zn4          O16   1.987       .  S
O6           C18   1.273       .  A
O7           C19   1.270       .  A
O8           C20   1.272       .  A
O9           C18   1.272   1_554  A
O10          C20   1.274   1_456  A
O11          C19   1.271   1_655  A
O12          C21   1.274   1_556  A
O13          C22   1.274   1_454  A
O14          C21   1.272       .  A
O15          C22   1.275       .  A
O16          C23   1.272       .  A
O17          C23   1.272   1_455  A
C18         C573   1.475       .  S
C19         C613   1.459       .  S
C20         C542   1.482       .  S
C21         C562   1.481       .  S
C22         C513   1.485       .  S
C23         C602   1.465       .  S
Zn24         O28   1.950   1_655  S
Zn24         O29   1.975       .  S
Zn24         O33   2.008       .  S
Zn24         O40   2.016       .  S
Zn25         O28   1.952       .  S
Zn25         O30   2.007       .  S
Zn25         O32   1.991       .  S
Zn25         O36   2.018       .  S
Zn26         O28   1.955       .  S
Zn26         O31   2.023       .  S
Zn26         O34   2.038       .  S
Zn26         O37   1.984       .  S
Zn27         O28   1.950   1_655  S
Zn27         O35   1.989       .  S
Zn27         O38   2.012       .  S
Zn27         O39   2.014       .  S
O29          C41   1.271   1_655  A
O30          C42   1.272       .  A
O31          C43   1.274   1_455  A
O32          C41   1.272       .  A
O33          C43   1.272       .  A
O34          C42   1.275       .  A
O35          C44   1.272       .  A
O36          C45   1.273       .  A
O37          C44   1.272   1_455  A
O38          C45   1.273   1_655  A
O39          C46   1.273       .  A
O40          C46   1.272       .  A
C41         C622   1.463       .  S
C42         C493   1.483       .  S
C43         C453   1.482       .  S
C44         C593   1.461       .  S
C45         C433   1.478       .  S
C46         C473   1.478       .  S
Zn47         O51   1.951       .  S
Zn47         O52   2.019       .  S
Zn47         O56   2.014       .  S
Zn47         O63   1.986       .  S
Zn48         O51   1.951   1_554  S
Zn48         O53   1.978       .  S
Zn48         O55   2.019       .  S
Zn48         O59   2.015       .  S
Zn49         O51   1.956   1_554  S
Zn49         O54   2.016       .  S
Zn49         O57   1.987       .  S
Zn49         O60   2.014       .  S
Zn50         O51   1.956       .  S
Zn50         O58   2.020       .  S
Zn50         O61   2.025       .  S
Zn50         O62   2.001       .  S
O52          C64   1.274   1_556  A
O53          C65   1.271       .  A
O54          C66   1.273   1_554  A
O55          C64   1.273       .  A
O56          C66   1.272       .  A
O57          C65   1.271       .  A
O58          C67   1.274       .  A
O59          C68   1.273       .  A
O60          C67   1.273   1_554  A
O61          C68   1.274   1_556  A
O62          C69   1.273       .  A
O63          C69   1.272       .  A
C64         C553   1.484       .  S
C65         C413   1.464       .  S
C66         C373   1.481       .  S
C67         C582   1.483       .  S
C68         C362   1.485       .  S
C69         C393   1.466       .  S
Zn70         O74   1.951       .  S
Zn70         O75   1.983       .  S
Zn70         O79   2.008       .  S
Zn70         O86   2.020       .  S
Zn71         O74   1.951       .  S
Zn71         O76   2.008       .  S
Zn71         O78   1.977       .  S
Zn71         O82   2.006       .  S
Zn72         O74   1.954       .  S
Zn72         O77   2.037       .  S
Zn72         O80   2.035       .  S
Zn72         O83   1.987       .  S
Zn73         O74   1.953       .  S
Zn73         O81   1.996       .  S
Zn73         O84   2.015       .  S
Zn73         O85   2.013       .  S
O75          C87   1.271       .  A
O76          C88   1.272       .  A
O77          C89   1.276       .  A
O78          C87   1.270       .  A
O79          C89   1.272       .  A
O80          C88   1.275       .  A
O81          C90   1.273       .  A
O82          C91   1.271       .  A
O83          C90   1.273       .  A
O84          C91   1.273       .  A
O85          C92   1.273       .  A
O86          C92   1.273       .  A
C87         C422   1.457       .  S
C88         C333   1.485       .  S
C89         C502   1.485       .  S
C90         C402   1.467       .  S
C91         C482   1.479       .  S
C92         C313   1.481       .  S
N93          C98   1.359       .  A
N93          C97   1.353   1_655  A
N93         H125   1.038       .  S
N94         C101   1.353       .  A
N94         C102   1.357       .  A
N95         C100   1.354   1_655  A
N95          C99   1.357   1_655  A
N95         H126   1.039       .  S
N96         C103   1.356       .  A
N96         C104   1.352       .  A
C97         C105   1.388       .  A
C97         C113   1.420   1_455  A
C98         C114   1.423       .  A
C98         C106   1.387   1_655  A
C99         C107   1.386       .  A
C99         C116   1.419   1_445  A
C100        C115   1.418   1_455  A
C100        C108   1.388       .  A
C101        C113   1.418   1_556  A
C101        C109   1.388       .  A
C102        C116   1.418       .  A
C102        C110   1.385       .  A
C103        C111   1.386       .  A
C103        C114   1.419   1_545  A
C104        C112   1.387       .  A
C104        C115   1.416   1_554  A
C105        C106   1.378       .  A
C105        H117   1.082       .  S
C106        H118   1.082       .  S
C107        C108   1.377       .  A
C107        H119   1.082       .  S
C108        H120   1.082       .  S
C109        C110   1.373       .  A
C109        H121   1.082       .  S
C110        H122   1.082       .  S
C111        C112   1.374       .  A
C111        H123   1.082       .  S
C112        H124   1.082       .  S
C113        C533   1.484       .  S
C114        C293   1.508       .  S
C115        C522   1.484       .  S
C116        C282   1.503       .  S
N127        C132   1.359       .  A
N127        C131   1.352       .  A
N127        H159   1.034   1_655  S
N128        C135   1.352   1_655  A
N128        C136   1.356   1_655  A
N129        C134   1.354       .  A
N129        C133   1.361       .  A
N129        H160   1.036   1_655  S
N130        C137   1.357   1_655  A
N130        C138   1.352   1_655  A
C131        C139   1.389       .  A
C131        C147   1.420   1_655  A
C132        C148   1.420       .  A
C132        C140   1.385       .  A
C133        C141   1.385       .  A
C133        C150   1.421   1_545  A
C134        C149   1.422       .  A
C134        C142   1.388       .  A
C135        C147   1.419       .  A
C135        C143   1.388       .  A
C136        C150   1.417   1_455  A
C136        C144   1.385       .  A
C137        C145   1.384       .  A
C137        C148   1.417   1_445  A
C138        C146   1.389       .  A
C138        C149   1.421   1_455  A
C139        C140   1.375       .  A
C139        H151   1.082       .  S
C140        H152   1.082       .  S
C141        C142   1.377       .  A
C141        H153   1.082       .  S
C142        H154   1.082       .  S
C143        C144   1.375       .  A
C143        H155   1.082       .  S
C144        H156   1.082       .  S
C145        C146   1.372       .  A
C145        H157   1.082       .  S
C146        H158   1.082       .  S
C147        C462   1.481       .  S
C148        C273   1.501       .  S
C149        C442   1.490       .  S
C150        C302   1.504       .  S
N161        C166   1.358       .  A
N161        C165   1.352       .  A
N161        H193   1.036       .  S
N162        C169   1.352       .  A
N162        C170   1.356       .  A
N163        C168   1.354       .  A
N163        C167   1.359       .  A
N163        H194   1.034       .  S
N164        C171   1.357       .  A
N164        C172   1.352       .  A
C165        C173   1.389       .  A
C165        C181   1.420       .  A
C166        C182   1.420   1_565  A
C166        C174   1.386       .  A
C167        C175   1.386       .  A
C167        C184   1.423       .  A
C168        C183   1.424       .  A
C168        C176   1.389       .  A
C169        C181   1.419   1_554  A
C169        C177   1.388       .  A
C170        C184   1.419   1_565  A
C170        C178   1.385       .  A
C171        C179   1.384       .  A
C171        C182   1.419       .  A
C172        C180   1.389       .  A
C172        C183   1.421   1_556  A
C173        C174   1.376       .  A
C173        H185   1.082       .  S
C174        H186   1.082       .  S
C175        C176   1.377       .  A
C175        H187   1.082       .  S
C176        H188   1.082       .  S
C177        C178   1.373       .  A
C177        H189   1.082       .  S
C178        H190   1.082       .  S
C179        C180   1.373       .  A
C179        H191   1.082       .  S
C180        H192   1.082       .  S
C181        C382   1.481       .  S
C182        C233   1.501       .  S
C183        C353   1.484       .  S
C184        C253   1.501       .  S
N195        C200   1.359       .  A
N195        C199   1.352       .  A
N195        H227   1.039       .  S
N196        C203   1.352       .  A
N196        C204   1.357       .  A
N197        C202   1.352       .  A
N197        C201   1.358       .  A
N197        H228   1.038       .  S
N198        C205   1.357       .  A
N198        C206   1.353       .  A
C199        C207   1.389       .  A
C199        C215   1.419       .  A
C200        C216   1.422       .  A
C200        C208   1.386       .  A
C201        C209   1.386       .  A
C201        C218   1.420   1_565  A
C202        C217   1.418       .  A
C202        C210   1.388       .  A
C203        C215   1.419       .  A
C203        C211   1.388       .  A
C204        C218   1.418       .  A
C204        C212   1.384       .  A
C205        C213   1.385       .  A
C205        C216   1.418   1_565  A
C206        C214   1.387       .  A
C206        C217   1.418       .  A
C207        C208   1.377       .  A
C207        H219   1.082       .  S
C208        H220   1.082       .  S
C209        C210   1.376       .  A
C209        H221   1.082       .  S
C210        H222   1.082       .  S
C211        C212   1.375       .  A
C211        H223   1.082       .  S
C212        H224   1.082       .  S
C213        C214   1.374       .  A
C213        H225   1.082       .  S
C214        H226   1.082       .  S
C215        C322   1.482       .  S
C216        C262   1.506       .  S
C217        C342   1.483       .  S
C218        C242   1.504       .  S
C229        C230   1.410       .  A
C229        C234   1.405       .  A
C229        H239   1.082       .  S
C230        C235   1.504       .  S
C230        C231   1.410       .  A
C231        C232   1.407       .  A
C231        H236   1.083   1_545  S
C232        C233   1.405       .  A
C232        H237   1.083   1_545  S
C233        C234   1.404       .  A
C234        H238   1.083       .  S
C235        C240   1.409   1_545  A
C235        C244   1.411       .  A
C240        C241   1.404       .  A
C240        H245   1.083       .  S
C241        C242   1.405   1_565  A
C241        H246   1.083       .  S
C242        C243   1.407       .  A
C243        C244   1.408       .  A
C243        H247   1.083       .  S
C244        H248   1.083       .  S
C249        C250   1.410       .  A
C249        C254   1.406       .  A
C249        H259   1.083       .  S
C250        C255   1.504       .  S
C250        C251   1.410   1_565  A
C251        C252   1.406       .  A
C251        H256   1.083       .  S
C252        C253   1.404       .  A
C252        H257   1.083       .  S
C253        C254   1.405   1_545  A
C254        H258   1.083       .  S
C255        C260   1.410   1_565  A
C255        C264   1.409       .  A
C260        C261   1.406       .  A
C260        H265   1.083       .  S
C261        C262   1.406       .  A
C261        H266   1.083       .  S
C262        C263   1.407   1_545  A
C263        C264   1.406       .  A
C263        H267   1.083       .  S
C264        H268   1.083       .  S
C269        C270   1.410       .  A
C269        C274   1.407       .  A
C269        H279   1.083       .  S
C270        C275   1.503       .  S
C270        C271   1.410   1_655  A
C271        C272   1.404       .  A
C271        H276   1.082       .  S
C272        C273   1.403   1_455  A
C272        H277   1.083       .  S
C273        C274   1.406       .  A
C274        H278   1.083       .  S
C275        C280   1.410   1_565  A
C275        C284   1.410   1_655  A
C280        C281   1.406       .  A
C280        H285   1.083       .  S
C281        C282   1.407   1_545  A
C281        H286   1.083       .  S
C282        C283   1.405   1_655  A
C283        C284   1.404       .  A
C283        H287   1.083       .  S
C284        H288   1.082       .  S
C289        C290   1.412       .  A
C289        C294   1.407       .  A
C289        H299   1.082       .  S
C290        C295   1.511       .  S
C290        C291   1.411   1_665  A
C291        C292   1.406       .  A
C291        H296   1.082       .  S
C292        C293   1.407   1_445  A
C292        H297   1.083       .  S
C293        C294   1.406       .  A
C294        H298   1.083       .  S
C295        C300   1.412       .  A
C295        C304   1.412   1_665  A
C300        C301   1.407       .  A
C300        H305   1.082       .  S
C301        C302   1.405       .  A
C301        H306   1.083       .  S
C302        C303   1.405   1_665  A
C303        C304   1.407       .  A
C303        H307   1.083       .  S
C304        H308   1.082       .  S
C309        C310   1.405       .  A
C309        C314   1.396       .  A
C309        H319   1.083       .  S
C310        C315   1.486       .  S
C310        C311   1.406       .  A
C311        C312   1.400       .  A
C311        H316   1.083       .  S
C312        C313   1.406       .  A
C312        H317   1.083       .  S
C313        C314   1.405       .  A
C314        H318   1.083       .  S
C315        C320   1.407       .  A
C315        C324   1.407       .  A
C320        C321   1.396       .  A
C320        H325   1.083       .  S
C321        C322   1.400       .  A
C321        H326   1.083       .  S
C322        C323   1.402       .  A
C323        C324   1.400       .  A
C323        H327   1.083       .  S
C324        H328   1.083       .  S
C329        C330   1.409       .  A
C329        C334   1.401       .  A
C329        H339   1.082       .  S
C330        C335   1.493       .  S
C330        C331   1.407       .  A
C331        C332   1.397       .  A
C331        H336   1.082       .  S
C332        C333   1.406       .  A
C332        H337   1.083       .  S
C333        C334   1.405       .  A
C334        H338   1.083       .  S
C335        C340   1.409       .  A
C335        C344   1.410       .  A
C340        C341   1.398       .  A
C340        H345   1.082       .  S
C341        C342   1.401       .  A
C341        H346   1.083       .  S
C342        C343   1.400       .  A
C343        C344   1.398       .  A
C343        H347   1.083       .  S
C344        H348   1.082       .  S
C349        C350   1.408       .  A
C349        C354   1.398       .  A
C349        H359   1.083       .  S
C350        C355   1.487       .  S
C350        C351   1.407   1_554  A
C351        C352   1.399       .  A
C351        H356   1.083       .  S
C352        C353   1.402   1_556  A
C352        H357   1.083       .  S
C353        C354   1.401       .  A
C354        H358   1.083       .  S
C355        C360   1.405       .  A
C355        C364   1.406   1_554  A
C360        C361   1.398       .  A
C360        H365   1.083       .  S
C361        C362   1.406       .  A
C361        H366   1.083       .  S
C362        C363   1.407   1_554  A
C363        C364   1.400       .  A
C363        H367   1.083       .  S
C364        H368   1.083       .  S
C369        C370   1.406       .  A
C369        C374   1.399       .  A
C369        H379   1.083       .  S
C370        C375   1.485       .  S
C370        C371   1.405   1_556  A
C371        C372   1.396       .  A
C371        H376   1.083       .  S
C372        C373   1.405   1_554  A
C372        H377   1.083       .  S
C373        C374   1.406       .  A
C374        H378   1.083       .  S
C375        C380   1.407       .  A
C375        C384   1.408   1_556  A
C380        C381   1.398       .  A
C380        H385   1.083       .  S
C381        C382   1.401       .  A
C381        H386   1.083       .  S
C382        C383   1.400   1_556  A
C383        C384   1.397       .  A
C383        H387   1.083       .  S
C384        H388   1.083       .  S
C389        C390   1.401       .  A
C389        C394   1.393       .  A
C389        H399   1.083       .  S
C390        C395   1.463       .  S
C390        C391   1.401       .  A
C391        C392   1.391       .  A
C391        H396   1.083       .  S
C392        C393   1.404       .  A
C392        H397   1.083       .  S
C393        C394   1.404       .  A
C394        H398   1.083       .  S
C395        C400   1.402       .  A
C395        C404   1.399       .  A
C400        C401   1.395       .  A
C400        H405   1.083       .  S
C401        C402   1.405       .  A
C401        H406   1.083       .  S
C402        C403   1.404       .  A
C403        C404   1.389       .  A
C403        H407   1.083       .  S
C404        H408   1.083       .  S
C409        C410   1.400       .  A
C409        C414   1.392       .  A
C409        H419   1.083       .  S
C410        C415   1.458       .  S
C410        C411   1.399       .  A
C411        C412   1.387       .  A
C411        H416   1.084       .  S
C412        C413   1.404       .  A
C412        H417   1.083       .  S
C413        C414   1.405       .  A
C414        H418   1.083       .  S
C415        C420   1.401       .  A
C415        C424   1.400       .  A
C420        C421   1.389       .  A
C420        H425   1.084       .  S
C421        C422   1.402       .  A
C421        H426   1.083       .  S
C422        C423   1.402       .  A
C423        C424   1.390       .  A
C423        H427   1.083       .  S
C424        H428   1.083       .  S
C429        C430   1.410       .  A
C429        C434   1.400       .  A
C429        H439   1.082       .  S
C430        C435   1.495   1_455  S
C430        C431   1.409   1_455  A
C431        C432   1.396       .  A
C431        H436   1.081       .  S
C432        C433   1.402   1_655  A
C432        H437   1.083       .  S
C433        C434   1.404       .  A
C434        H438   1.083       .  S
C435        C440   1.410   1_655  A
C435        C444   1.410       .  A
C440        C441   1.398       .  A
C440        H445   1.082       .  S
C441        C442   1.403   1_455  A
C441        H446   1.083       .  S
C442        C443   1.402       .  A
C443        C444   1.397       .  A
C443        H447   1.083       .  S
C444        H448   1.081       .  S
C449        C450   1.406       .  A
C449        C454   1.397       .  A
C449        H459   1.082       .  S
C450        C455   1.489       .  S
C450        C451   1.407   1_655  A
C451        C452   1.398       .  A
C451        H456   1.082       .  S
C452        C453   1.405   1_455  A
C452        H457   1.083       .  S
C453        C454   1.406       .  A
C454        H458   1.083       .  S
C455        C460   1.408   1_655  A
C455        C464   1.409       .  A
C460        C461   1.397       .  A
C460        H465   1.082       .  S
C461        C462   1.400       .  A
C461        H466   1.083       .  S
C462        C463   1.401   1_455  A
C463        C464   1.398       .  A
C463        H467   1.083       .  S
C464        H468   1.082       .  S
C469        C470   1.405       .  A
C469        C474   1.394       .  A
C469        H479   1.083       .  S
C470        C475   1.484       .  S
C470        C471   1.406       .  A
C471        C472   1.400       .  A
C471        H476   1.083       .  S
C472        C473   1.406       .  A
C472        H477   1.083       .  S
C473        C474   1.403       .  A
C474        H478   1.083       .  S
C475        C480   1.405       .  A
C475        C484   1.406       .  A
C480        C481   1.394       .  A
C480        H485   1.083       .  S
C481        C482   1.404       .  A
C481        H486   1.083       .  S
C482        C483   1.407       .  A
C483        C484   1.399       .  A
C483        H487   1.083       .  S
C484        H488   1.083       .  S
C489        C490   1.409       .  A
C489        C494   1.402       .  A
C489        H499   1.082       .  S
C490        C495   1.494       .  S
C490        C491   1.407       .  A
C491        C492   1.397       .  A
C491        H496   1.082       .  S
C492        C493   1.405       .  A
C492        H497   1.083       .  S
C493        C494   1.405       .  A
C494        H498   1.083       .  S
C495        C500   1.408       .  A
C495        C504   1.408       .  A
C500        C501   1.401       .  A
C500        H505   1.082       .  S
C501        C502   1.405       .  A
C501        H506   1.083       .  S
C502        C503   1.406       .  A
C503        C504   1.398       .  A
C503        H507   1.083       .  S
C504        H508   1.082       .  S
C509        C510   1.407   1_454  A
C509        C514   1.400       .  A
C509        H519   1.083       .  S
C510        C515   1.491       .  S
C510        C511   1.407       .  A
C511        C512   1.399       .  A
C511        H516   1.083       .  S
C512        C513   1.406       .  A
C512        H517   1.083       .  S
C513        C514   1.406   1_656  A
C514        H518   1.083       .  S
C515        C520   1.408   1_656  A
C515        C524   1.409       .  A
C520        C521   1.399       .  A
C520        H525   1.083       .  S
C521        C522   1.401   1_454  A
C521        H526   1.083       .  S
C522        C523   1.401       .  A
C523        C524   1.399       .  A
C523        H527   1.083       .  S
C524        H528   1.083       .  S
C529        C530   1.407       .  A
C529        C534   1.399       .  A
C529        H539   1.083       .  S
C530        C535   1.488       .  S
C530        C531   1.408   1_654  A
C531        C532   1.398       .  A
C531        H536   1.083       .  S
C532        C533   1.401   1_456  A
C532        H537   1.083       .  S
C533        C534   1.401       .  A
C534        H538   1.083       .  S
C535        C540   1.407       .  A
C535        C544   1.406   1_654  A
C540        C541   1.399       .  A
C540        H545   1.083       .  S
C541        C542   1.406       .  A
C541        H546   1.083       .  S
C542        C543   1.405   1_654  A
C543        C544   1.397       .  A
C543        H547   1.083       .  S
C544        H548   1.083       .  S
C549        C550   1.404       .  A
C549        C554   1.401       .  A
C549        H559   1.083       .  S
C550        C555   1.480       .  S
C550        C551   1.403   1_554  A
C551        C552   1.397       .  A
C551        H556   1.083       .  S
C552        C553   1.406   1_556  A
C552        H557   1.083       .  S
C553        C554   1.408       .  A
C554        H558   1.083       .  S
C555        C560   1.404       .  A
C555        C564   1.404   1_554  A
C560        C561   1.400       .  A
C560        H565   1.083       .  S
C561        C562   1.407       .  A
C561        H566   1.083       .  S
C562        C563   1.405   1_554  A
C563        C564   1.398       .  A
C563        H567   1.083       .  S
C564        H568   1.083       .  S
C569        C570   1.404   1_554  A
C569        C574   1.399       .  A
C569        H579   1.083       .  S
C570        C575   1.481       .  S
C570        C571   1.405       .  A
C571        C572   1.399       .  A
C571        H576   1.083       .  S
C572        C573   1.403       .  A
C572        H577   1.083       .  S
C573        C574   1.405   1_556  A
C574        H578   1.083       .  S
C575        C580   1.404   1_556  A
C575        C584   1.403       .  A
C580        C581   1.399       .  A
C580        H585   1.083       .  S
C581        C582   1.407   1_554  A
C581        H586   1.083       .  S
C582        C583   1.406       .  A
C583        C584   1.397       .  A
C583        H587   1.083       .  S
C584        H588   1.083       .  S
C589        C590   1.404   1_455  A
C589        C594   1.389       .  A
C589        H599   1.083       .  S
C590        C595   1.471       .  S
C590        C591   1.405       .  A
C591        C592   1.392       .  A
C591        H596   1.083       .  S
C592        C593   1.402       .  A
C592        H597   1.083       .  S
C593        C594   1.401   1_655  A
C594        H598   1.083       .  S
C595        C600   1.404   1_655  A
C595        C604   1.403       .  A
C600        C601   1.389       .  A
C600        H605   1.083       .  S
C601        C602   1.403   1_455  A
C601        H606   1.083       .  S
C602        C603   1.403       .  A
C603        C604   1.391       .  A
C603        H607   1.083       .  S
C604        H608   1.083       .  S
C609        C610   1.403   1_655  A
C609        C614   1.386       .  A
C609        H619   1.083       .  S
C610        C615   1.468       .  S
C610        C611   1.403       .  A
C611        C612   1.391       .  A
C611        H616   1.083       .  S
C612        C613   1.403       .  A
C612        H617   1.083       .  S
C613        C614   1.400   1_455  A
C614        H618   1.083       .  S
C615        C620   1.403       .  A
C615        C624   1.403   1_455  A
C620        C621   1.391       .  A
C620        H625   1.083       .  S
C621        C622   1.403       .  A
C621        H626   1.083       .  S
C622        C623   1.402   1_455  A
C623        C624   1.387       .  A
C623        H627   1.083       .  S
C624        H628   1.083       .  S
