geometry optimzed in LAMMPS
_audit_creation_date              2020-11-30 
_audit_creation_method            'lammps2cif' 
_symmetry_space_group_name_H-M    'P1' 
_symmetry_Int_Tables_number       1 
_symmetry_cell_setting            triclinic 
loop_ 
_symmetry_equiv_pos_as_xyz 
  x,y,z 
_cell_length_a                    44.53352601 
_cell_length_b                    44.51490685041137 
_cell_length_c                    37.675362911856105 
_cell_angle_alpha                 89.94000915752751 
_cell_angle_beta                  89.96505124727614 
_cell_angle_gamma                 89.93204376522839 
loop_ 
_atom_site_label 
_atom_site_type_symbol 
_atom_site_fract_x 
_atom_site_fract_y 
_atom_site_fract_z 
_atom_site_charge 
N1          N  0.48194514  0.20323068  0.30310451    -0.27700
N2          N  0.47339923  0.22902444  0.31716927    -0.35600
C3          C  0.45618012  0.22350798  0.34570965     0.00600
C4          C  0.45425756  0.19268660  0.35038088     0.06700
C5          C  0.47064359  0.18058250  0.32256239    -0.06400
H6          H  0.44521650  0.24076172  0.36119598     0.07300
H7          H  0.47388009  0.15702594  0.31663230     0.08500
Cu8        Cu  0.48479404  0.27055520  0.29657028     0.44200
Cu9        Cu  0.50695754  0.20012837  0.25696039     0.42000
Cu10       Cu  0.52047288  0.27010235  0.21029159     0.43900
N11         N  0.49673082  0.30912223  0.26938444    -0.35100
N12         N  0.50859811  0.30898368  0.23720384    -0.29300
C13         C  0.51233314  0.33750484  0.22628605    -0.05400
C14         C  0.50265696  0.35639921  0.25305799     0.06800
C15         C  0.49300447  0.33770977  0.28003760     0.00600
H16         H  0.52174477  0.34398021  0.20093218     0.08200
H17         H  0.48346300  0.34435084  0.30526307     0.07300
N18         N  0.53431436  0.22842437  0.19183137    -0.36500
N19         N  0.52987507  0.20305282  0.20929421    -0.28700
C20         C  0.54259649  0.18036775  0.19121220    -0.04000
C21         C  0.55600104  0.19195701  0.16100460     0.04600
C22         C  0.54989600  0.22250118  0.16205048     0.02700
H23         H  0.54243126  0.15714809  0.19971842     0.07800
H24         H  0.55618141  0.23925859  0.14262954     0.06700
O25         O  0.54676839  0.45036925  0.22159144    -0.73400
O26         O  0.45664007  0.44589309  0.22291415    -0.74300
O27         O  0.49941400  0.49325989  0.22136969    -0.63000
O28         O  0.50393517  0.40321827  0.22303898    -0.71400
O29         O  0.50056388  0.40379451  0.28185529    -0.70900
O30         O  0.50354225  0.49400166  0.28010120    -0.62200
O31         O  0.45692740  0.45037085  0.28161619    -0.74700
O32         O  0.54711600  0.44727377  0.28042390    -0.73500
Cu33       Cu  0.50165878  0.44817977  0.22015358     1.04600
Cu34       Cu  0.50205476  0.44891136  0.28309755     1.04300
C35         C  0.56113149  0.44880586  0.25087511     0.92800
C36         C  0.44260440  0.44785622  0.25240809     0.92000
C37         C  0.50141973  0.50782045  0.25046249     0.84100
C38         C  0.50237923  0.38933409  0.25265895     0.90400
N39         N  0.74814739  0.47651812  0.20849489    -0.27700
N40         N  0.72268600  0.48347160  0.19235873    -0.35600
C41         C  0.72885727  0.50064790  0.16384973     0.00600
C42         C  0.75964185  0.50424280  0.16172801     0.06700
C43         C  0.77118929  0.48871958  0.19043541    -0.06400
H44         H  0.71220298  0.50963612  0.14583367     0.07300
H45         H  0.79456392  0.48675463  0.19789968     0.08500
Cu46       Cu  0.68066039  0.46939608  0.20988652     0.44200
Cu47       Cu  0.75051681  0.45185383  0.25513182     0.42000
Cu48       Cu  0.67976629  0.43109617  0.29487420     0.43900
N49         N  0.64158210  0.45548895  0.23532210    -0.35100
N50         N  0.64138052  0.44271456  0.26703591    -0.29300
C51         C  0.61279624  0.43844541  0.27734995    -0.05400
C52         C  0.59410532  0.44866618  0.25068805     0.06800
C53         C  0.61304255  0.45918841  0.22433943     0.00600
H54         H  0.60614319  0.42846327  0.30234105     0.08200
H55         H  0.60657162  0.46951116  0.19948183     0.07300
N56         N  0.72105369  0.42044404  0.31681243    -0.36500
N57         N  0.74695940  0.42806399  0.30227369    -0.28700
C58         C  0.76944702  0.41728633  0.32239668    -0.04000
C59         C  0.75713183  0.40231786  0.35116524     0.04600
C60         C  0.72635578  0.40453140  0.34651055     0.02700
H61         H  0.79304525  0.41988865  0.31631656     0.07800
H62         H  0.70904297  0.39456935  0.36285890     0.06700
N63         N  0.47444654  0.69405857  0.20403825    -0.27700
N64         N  0.46819112  0.66847248  0.18786930    -0.35600
C65         C  0.45114522  0.67431627  0.15918709     0.00600
C66         C  0.44629899  0.70504206  0.15739259     0.06700
C67         C  0.46170590  0.71681944  0.18603246    -0.06400
H68         H  0.44311799  0.65745255  0.14086095     0.07300
H69         H  0.46329054  0.74023097  0.19346729     0.08500
Cu70       Cu  0.48240891  0.62673960  0.20616279     0.44200
Cu71       Cu  0.49931374  0.69720090  0.25031405     0.42000
Cu72       Cu  0.52101771  0.62712594  0.29092870     0.43900
N73         N  0.49532953  0.58805820  0.23310050    -0.35100
N74         N  0.50815845  0.58830433  0.26475507    -0.29300
C75         C  0.51198641  0.55984727  0.27590718    -0.05400
C76         C  0.50143675  0.54079582  0.24982294     0.06800
C77         C  0.49113269  0.55937496  0.22300440     0.00600
H78         H  0.52213261  0.55352141  0.30090980     0.08200
H79         H  0.48086011  0.55257917  0.19826704     0.07300
N80         N  0.53274008  0.66878749  0.31106778    -0.36500
N81         N  0.52427461  0.69448829  0.29656556    -0.28700
C82         C  0.53529402  0.71733009  0.31589821    -0.04000
C83         C  0.55151769  0.70537352  0.34383980     0.04600
C84         C  0.54969386  0.67456814  0.33978099     0.02700
H85         H  0.53230866  0.74086431  0.30960703     0.07800
H86         H  0.55994739  0.65761898  0.35643860     0.06700
N87         N  0.25752321  0.43030026  0.19768349    -0.27700
N88         N  0.28302474  0.41925732  0.18540033    -0.35600
C89         C  0.27725041  0.40262033  0.15642581     0.00600
C90         C  0.24663366  0.40366878  0.14980043     0.06700
C91         C  0.23489426  0.42125095  0.17675144    -0.06400
H92         H  0.29404137  0.39001611  0.14198503     0.07300
H93         H  0.21151270  0.42668403  0.18122035     0.08500
Cu94       Cu  0.32426443  0.42727592  0.20901630     0.44200
Cu95       Cu  0.25420760  0.45531873  0.24364868     0.42000
Cu96       Cu  0.32299732  0.46772151  0.29268164     0.43900
N97         N  0.36249509  0.43971777  0.23669307    -0.35100
N98         N  0.36210427  0.45354795  0.26775011    -0.29300
C99         C  0.39055748  0.45814308  0.27847101    -0.05400
C100        C  0.40965828  0.44707413  0.25264104     0.06800
C101        C  0.39115590  0.43561279  0.22654631     0.00600
H102        H  0.39683630  0.46946842  0.30274751     0.08200
H103        H  0.39799290  0.42502003  0.20199635     0.07300
N104        N  0.28103131  0.48212298  0.30966868    -0.36500
N105        N  0.25597179  0.47754185  0.29169383    -0.28700
C106        C  0.23284132  0.48983231  0.30944443    -0.04000
C107        C  0.24383980  0.50268547  0.34019331     0.04600
C108        C  0.27451010  0.49763912  0.33929019     0.02700
H109        H  0.20983671  0.48990581  0.30023836     0.07800
H110        H  0.29089277  0.50478810  0.35870920     0.06700
N111        N  0.47205435  0.69500483  0.78755224    -0.27700
N112        N  0.46372681  0.66947912  0.80261055    -0.35600
C113        C  0.44656987  0.67568441  0.83109809     0.00600
C114        C  0.44417912  0.70656397  0.83420007     0.06700
C115        C  0.46080787  0.71811661  0.80636705    -0.06400
H116        H  0.43695248  0.65897692  0.84859276     0.07300
H117        H  0.46424546  0.74158062  0.80006285     0.08500
Cu118      Cu  0.47680964  0.62735614  0.78438652     0.44200
Cu119      Cu  0.49764587  0.69723845  0.74158412     0.42000
Cu120      Cu  0.51902740  0.62605036  0.70223362     0.43900
N121        N  0.49162851  0.58809981  0.76011549    -0.35100
N122        N  0.50593682  0.58767992  0.72934551    -0.29300
C123        C  0.51105514  0.55899563  0.71990767    -0.05400
C124        C  0.49980731  0.54049780  0.74622410     0.06800
C125        C  0.48776772  0.55965172  0.77139933     0.00600
H126        H  0.52252021  0.55214726  0.69590728     0.08200
H127        H  0.47654802  0.55338514  0.79577926     0.07300
N128        N  0.53102294  0.66745964  0.68140853    -0.36500
N129        N  0.52271017  0.69341871  0.69537188    -0.28700
C130        C  0.53394557  0.71590744  0.67556499    -0.04000
C131        C  0.55017494  0.70346008  0.64794786     0.04600
C132        C  0.54811460  0.67273771  0.65261976     0.02700
H133        H  0.53110618  0.73954126  0.68131483     0.07800
H134        H  0.55829439  0.65550672  0.63633595     0.06700
O135        O  0.54646835  0.45203660  0.77928760    -0.73400
O136        O  0.45664633  0.44489449  0.77565655    -0.74300
O137        O  0.50515007  0.40342187  0.77854724    -0.63000
O138        O  0.49807779  0.49361219  0.77656613    -0.71400
O139        O  0.50368373  0.49299630  0.71800075    -0.70900
O140        O  0.50302093  0.40278485  0.71966713    -0.62200
O141        O  0.45830229  0.44823573  0.71686266    -0.74700
O142        O  0.54823603  0.44764784  0.72059763    -0.73500
Cu143      Cu  0.50151417  0.44852088  0.77962200     1.04600
Cu144      Cu  0.50336754  0.44787795  0.71671464     1.04300
C145        C  0.56148338  0.45044126  0.75045178     0.92800
C146        C  0.44332942  0.44600767  0.74565531     0.92000
C147        C  0.50455464  0.38890931  0.74932048     0.84100
C148        C  0.50051093  0.50750295  0.74700022     0.90400
N149        N  0.25701784  0.42655705  0.79355761    -0.27700
N150        N  0.28204107  0.41381043  0.80497894    -0.35600
C151        C  0.27542727  0.39491121  0.83176520     0.00600
C152        C  0.24470234  0.39568214  0.83744305     0.06700
C153        C  0.23382268  0.41626251  0.81299853    -0.06400
H154        H  0.29183554  0.38188095  0.84632404     0.07300
H155        H  0.21066704  0.42292408  0.80928300     0.08500
Cu156      Cu  0.32399770  0.42313755  0.78374404     0.44200
Cu157      Cu  0.25559242  0.45598284  0.75057257     0.42000
Cu158      Cu  0.32497714  0.46614139  0.70152144     0.43900
N159        N  0.36294042  0.43661208  0.75807383    -0.35100
N160        N  0.36332869  0.45127092  0.72750873    -0.29300
C161        C  0.39202052  0.45636747  0.71808040    -0.05400
C162        C  0.41045345  0.44475883  0.74422884     0.06800
C163        C  0.39133945  0.43246292  0.76919872     0.00600
H164        H  0.39889650  0.46846722  0.69452593     0.08200
H165        H  0.39757765  0.42128757  0.79362722     0.07300
N166        N  0.28366072  0.48214735  0.68425653    -0.36500
N167        N  0.25862557  0.47941216  0.70282874    -0.28700
C168        C  0.23604677  0.49252375  0.68485607    -0.04000
C169        C  0.24714302  0.50351452  0.65293955     0.04600
C170        C  0.27757495  0.49682435  0.65383602     0.02700
H171        H  0.21324559  0.49395180  0.69454564     0.07800
H172        H  0.29408286  0.50193314  0.63363838     0.06700
N173        N  0.53097278  0.20150522  0.79360687    -0.27700
N174        N  0.53643369  0.22700833  0.81042095    -0.35600
C175        C  0.55170205  0.22097542  0.84037529     0.00600
C176        C  0.55622686  0.19026320  0.84243614     0.06700
C177        C  0.54248524  0.17860130  0.81257140    -0.06400
H178        H  0.55896198  0.23775245  0.85925606     0.07300
H179        H  0.54138252  0.15521804  0.80487460     0.08500
Cu180      Cu  0.52387857  0.26923967  0.79203836     0.44200
Cu181      Cu  0.50866379  0.19862711  0.74535020     0.42000
Cu182      Cu  0.48793944  0.26986657  0.70678747     0.43900
N183        N  0.51185322  0.30852754  0.76575600    -0.35100
N184        N  0.49982947  0.30851665  0.73369077    -0.29300
C185        C  0.49579646  0.33701615  0.72289584    -0.05400
C186        C  0.50535448  0.35591991  0.74963791     0.06800
C187        C  0.51533579  0.33716413  0.77651316     0.00600
H188        H  0.48605673  0.34346698  0.69771082     0.08200
H189        H  0.52476902  0.34381103  0.80176585     0.07300
N190        N  0.47597495  0.22889718  0.68525519    -0.36500
N191        N  0.48418575  0.20270847  0.69871089    -0.28700
C192        C  0.47258688  0.18059288  0.67864556    -0.04000
C193        C  0.45620374  0.19360545  0.65145129     0.04600
C194        C  0.45861557  0.22420550  0.65662723     0.02700
H195        H  0.47507797  0.15685419  0.68408757     0.07800
H196        H  0.44834545  0.24177470  0.64089954     0.06700
N197        N  0.74537573  0.46559249  0.81127206    -0.27700
N198        N  0.71994507  0.47795851  0.82205496    -0.35600
C199        C  0.72563937  0.49638248  0.84948731     0.00600
C200        C  0.75602810  0.49519327  0.85672443     0.06700
C201        C  0.76790534  0.47554827  0.83194082    -0.06400
H202        H  0.70896075  0.50998639  0.86282927     0.07300
H203        H  0.79134861  0.46997903  0.82819557     0.08500
Cu204      Cu  0.67877760  0.47019728  0.79834692     0.44200
Cu205      Cu  0.74874324  0.43900858  0.76606011     0.42000
Cu206      Cu  0.68175916  0.43666662  0.71144527     0.43900
N207        N  0.64098722  0.45915817  0.76925488    -0.35100
N208        N  0.64214481  0.44783519  0.73686322    -0.29300
C209        C  0.61404029  0.44327965  0.72508950    -0.05400
C210        C  0.59432485  0.45187294  0.75152457     0.06800
C211        C  0.61209597  0.46178593  0.77917900     0.00600
H212        H  0.60843074  0.43374216  0.69954015     0.08200
H213        H  0.60462845  0.47033868  0.80456894     0.07300
N214        N  0.72327521  0.42121379  0.69494134    -0.36500
N215        N  0.74736184  0.42058017  0.71537752    -0.28700
C216        C  0.77001666  0.40765049  0.69734162    -0.04000
C217        C  0.75992061  0.40034809  0.66356663     0.04600
C218        C  0.73002968  0.40906960  0.66330288     0.02700
H219        H  0.79202980  0.40351667  0.70838692     0.07800
H220        H  0.71419609  0.40666526  0.64173485     0.06700
N221        N  0.02533156  0.70366062  0.70292180    -0.27700
N222        N  0.03324114  0.72925940  0.68774423    -0.35600
C223        C  0.05107240  0.72329008  0.65978712     0.00600
C224        C  0.05477947  0.69243242  0.65713843     0.06700
C225        C  0.03756145  0.68077611  0.68461663    -0.06400
H226        H  0.06099565  0.74028320  0.64292664     0.07300
H227        H  0.03396043  0.65737416  0.69094059     0.08500
Cu228      Cu  0.02013930  0.77140942  0.70565425     0.44200
Cu229      Cu  0.99982384  0.70049376  0.74919322     0.42000
Cu230      Cu  0.97663906  0.77140199  0.78612596     0.43900
N231        N  0.00644377  0.81038825  0.73123813    -0.35100
N232        N  0.99166929  0.81020657  0.76167969    -0.29300
C233        C  0.98763466  0.83864763  0.77268677    -0.05400
C234        C  0.00001334  0.85764392  0.74764598     0.06800
C235        C  0.01165017  0.83904637  0.72163762     0.00600
H236        H  0.97604767  0.84500704  0.79679077     0.08200
H237        H  0.02347665  0.84580452  0.69784399     0.07300
N238        N  0.96457288  0.73032303  0.80748628    -0.36500
N239        N  0.97418033  0.70424505  0.79529349    -0.28700
C240        C  0.96360196  0.68225383  0.81644165    -0.04000
C241        C  0.94630333  0.69506702  0.84328740     0.04600
C242        C  0.94707249  0.72564106  0.83598712     0.02700
H243        H  0.96811530  0.65862734  0.81239087     0.07800
H244        H  0.93531796  0.74342437  0.84963524     0.06700
O245        O  0.99835561  0.99530650  0.72140715    -0.73400
O246        O  0.00262270  0.90526353  0.71941036    -0.74300
O247        O  0.95530085  0.94822803  0.72069009    -0.63000
O248        O  0.04569070  0.95247870  0.72033274    -0.71400
O249        O  0.04582740  0.94691350  0.77889908    -0.70900
O250        O  0.95540063  0.95177650  0.77945646    -0.62200
O251        O  0.99825911  0.90428645  0.77812079    -0.74700
O252        O  0.00304842  0.99443927  0.78008296    -0.73500
Cu253      Cu  0.00048849  0.95034662  0.71837993     1.04600
Cu254      Cu  0.00064199  0.94931798  0.78124565     1.04300
C255        C  0.00076209  0.00904613  0.75100054     0.92800
C256        C  0.00036320  0.89059273  0.74843218     0.92000
C257        C  0.94111407  0.95002332  0.75011820     0.84100
C258        C  0.05998062  0.94972496  0.74956624     0.90400
N259        N  0.24582018  0.98954731  0.71466079    -0.27700
N260        N  0.22019695  0.99663959  0.69906906    -0.35600
C261        C  0.22598447  0.01462713  0.67119751     0.00600
C262        C  0.25674390  0.01915434  0.66909377     0.06700
C263        C  0.26855819  0.00266376  0.69701628    -0.06400
H264        H  0.20909464  0.02295106  0.65303766     0.07300
H265        H  0.29203745  0.99901054  0.70294726     0.08500
Cu266      Cu  0.17880219  0.97936041  0.71441297     0.44200
Cu267      Cu  0.24914130  0.95987034  0.75684804     0.42000
Cu268      Cu  0.17980927  0.92610541  0.78730906     0.43900
N269        N  0.14030286  0.96031398  0.73610408    -0.35100
N270        N  0.14058332  0.94205908  0.76383858    -0.29300
C271        C  0.11207523  0.93558231  0.77298970    -0.05400
C272        C  0.09301586  0.94998000  0.74947855     0.06800
C273        C  0.11164454  0.96533669  0.72636209     0.00600
H274        H  0.10571398  0.92117710  0.79488137     0.08200
H275        H  0.10485974  0.97980609  0.70470926     0.07300
N276        N  0.22209467  0.91363293  0.80573826    -0.36500
N277        N  0.24725186  0.92661007  0.79525814    -0.28700
C278        C  0.27043958  0.91463249  0.81322111    -0.04000
C279        C  0.25956110  0.89252987  0.83577027     0.04600
C280        C  0.22870787  0.89278404  0.83041422     0.02700
H281        H  0.29337614  0.92226748  0.81076001     0.07800
H282        H  0.21215785  0.87914586  0.84390796     0.06700
N283        N  0.96696736  0.19537937  0.71389820    -0.27700
N284        N  0.96084758  0.16993992  0.69734414    -0.35600
C285        C  0.94439031  0.17600862  0.66830552     0.00600
C286        C  0.94002066  0.20673800  0.66653793     0.06700
C287        C  0.95488875  0.21834985  0.69562256    -0.06400
H288        H  0.93671596  0.15934764  0.64950373     0.07300
H289        H  0.95677110  0.24175731  0.70298125     0.08500
Cu290      Cu  0.97597790  0.12827822  0.71418537     0.44200
Cu291      Cu  0.99170325  0.19788576  0.76024392     0.42000
Cu292      Cu  0.02265110  0.12785964  0.79266367     0.43900
N293        N  0.99239102  0.08944362  0.73752975    -0.35100
N294        N  0.00840801  0.08919882  0.76707255    -0.29300
C295        C  0.01370095  0.06054079  0.77660439    -0.05400
C296        C  0.00080865  0.04197758  0.75150075     0.06800
C297        C  0.98761928  0.06098767  0.72703214     0.00600
H298        H  0.02626547  0.05376201  0.79984767     0.08200
H299        H  0.97484370  0.05462471  0.70381266     0.07300
N300        N  0.03216450  0.16946581  0.81462879    -0.36500
N301        N  0.01961023  0.19478326  0.80394932    -0.28700
C302        C  0.02941509  0.21738587  0.82447962    -0.04000
C303        C  0.04930637  0.20589366  0.84938897     0.04600
C304        C  0.05082310  0.17540305  0.84173530     0.02700
H305        H  0.02269898  0.24057754  0.82117465     0.07800
H306        H  0.06492149  0.15867153  0.85414490     0.06700
N307        N  0.75488939  0.91963373  0.70505859    -0.27700
N308        N  0.78088630  0.91217344  0.69057208    -0.35600
C309        C  0.77579203  0.89378314  0.66290400     0.00600
C310        C  0.74511139  0.88921058  0.65991550     0.06700
C311        C  0.73259044  0.90630248  0.68689360    -0.06400
H312        H  0.79318261  0.88440862  0.64617526     0.07300
H313        H  0.70897670  0.90934433  0.69257221     0.08500
Cu314      Cu  0.82215128  0.92727798  0.70912819     0.44200
Cu315      Cu  0.75089344  0.94728739  0.74917544     0.42000
Cu316      Cu  0.82108116  0.96970268  0.79084727     0.43900
N317        N  0.86072296  0.94219994  0.73466224    -0.35100
N318        N  0.86044499  0.95639596  0.76548467    -0.29300
C319        C  0.88897132  0.96119774  0.77592490    -0.05400
C320        C  0.90804593  0.94990237  0.75013703     0.06800
C321        C  0.88937893  0.93814522  0.72433159     0.00600
H322        H  0.89533204  0.97247770  0.80019800     0.08200
H323        H  0.89612804  0.92687066  0.70017462     0.07300
N324        N  0.77882975  0.98218100  0.80937227    -0.36500
N325        N  0.75329922  0.97369985  0.79449443    -0.28700
C326        C  0.73020587  0.98478048  0.81349662    -0.04000
C327        C  0.74179615  0.00110563  0.84151046     0.04600
C328        C  0.77262943  0.99919565  0.83796748     0.02700
H329        H  0.70674494  0.98121448  0.80738859     0.07800
H330        H  0.78932827  0.00898260  0.85528898     0.06700
N331        N  0.02386670  0.20174021  0.20648932    -0.27700
N332        N  0.03716559  0.17696230  0.19534682    -0.35600
C333        C  0.05602338  0.18402464  0.16872888     0.00600
C334        C  0.05456661  0.21480631  0.16257521     0.06700
C335        C  0.03342827  0.22508479  0.18684124    -0.06400
H336        H  0.06969893  0.16779964  0.15473390     0.07300
H337        H  0.02477954  0.24762454  0.18963283     0.08500
Cu338      Cu  0.02765674  0.13452977  0.21574793     0.44200
Cu339      Cu  0.99437871  0.20291988  0.24899370     0.42000
Cu340      Cu  0.98053149  0.13243208  0.29436596     0.43900
N341        N  0.01354927  0.09503059  0.24026523    -0.35100
N342        N  0.99765545  0.09440583  0.26993415    -0.29300
C343        C  0.99274738  0.06565187  0.27929007    -0.05400
C344        C  0.00564561  0.04731372  0.25393325     0.06800
C345        C  0.01856959  0.06662441  0.22952524     0.00600
H346        H  0.97983634  0.05865157  0.30218330     0.08200
H347        H  0.03083824  0.06049669  0.20581489     0.07300
N348        N  0.96285679  0.17325105  0.31060737    -0.36500
N349        N  0.96831673  0.19900172  0.29430721    -0.28700
C350        C  0.95480145  0.22135686  0.31220197    -0.04000
C351        C  0.93965663  0.20897879  0.34066001     0.04600
C352        C  0.94530037  0.17848087  0.33900799     0.02700
H353        H  0.95615087  0.24489684  0.30522023     0.07800
H354        H  0.93796359  0.16149707  0.35764534     0.06700
O355        O  0.04934212  0.95354391  0.22042699    -0.73400
O356        O  0.95918151  0.95766424  0.22244993    -0.74300
O357        O  0.00649032  0.00084391  0.22293035    -0.63000
O358        O  0.00238117  0.91063037  0.21986904    -0.71400
O359        O  0.00657681  0.90917641  0.27857430    -0.70900
O360        O  0.00317732  0.99943070  0.28172018    -0.62200
O361        O  0.95972395  0.95260662  0.28108387    -0.74700
O362        O  0.04985233  0.95583799  0.27930757    -0.73500
Cu363      Cu  0.00427555  0.95576235  0.21933836     1.04600
Cu364      Cu  0.00484350  0.95423548  0.28225556     1.04300
C365        C  0.06376915  0.95441250  0.24968977     0.92800
C366        C  0.94525164  0.95504896  0.25196360     0.92000
C367        C  0.00507200  0.01433208  0.25280209     0.84100
C368        C  0.00462669  0.89570883  0.24872897     0.90400
N369        N  0.75911247  0.92421902  0.29538698    -0.27700
N370        N  0.78439053  0.92067130  0.31331355    -0.35600
C371        C  0.77830621  0.90637524  0.34396999     0.00600
C372        C  0.74769715  0.90113029  0.34556868     0.06700
C373        C  0.73629612  0.91254619  0.31421755    -0.06400
H374        H  0.79495239  0.89990154  0.36339293     0.07300
H375        H  0.71325380  0.91157749  0.30518180     0.08500
Cu376      Cu  0.82618979  0.93424591  0.29470215     0.44200
Cu377      Cu  0.75644540  0.94358467  0.24558019     0.42000
Cu378      Cu  0.82616156  0.96769213  0.20688974     0.43900
N379        N  0.86494156  0.94736019  0.26809417    -0.35100
N380        N  0.86483471  0.95857374  0.23556809    -0.29300
C381        C  0.89331344  0.96311682  0.22499888    -0.05400
C382        C  0.91225466  0.95466522  0.25227931     0.06800
C383        C  0.89355753  0.94485750  0.27926144     0.00600
H384        H  0.89972868  0.97197333  0.19934093     0.08200
H385        H  0.90025426  0.93588289  0.30475757     0.07300
N386        N  0.78460682  0.97608940  0.18414929    -0.36500
N387        N  0.75907456  0.96659698  0.19799377    -0.28700
C388        C  0.73615890  0.97664788  0.17805287    -0.04000
C389        C  0.74774273  0.99335000  0.15017126     0.04600
C390        C  0.77859889  0.99270753  0.15518568     0.02700
H391        H  0.71271919  0.97283404  0.18408485     0.07800
H392        H  0.79544146  0.00455423  0.13996677     0.06700
N393        N  0.97372111  0.71071361  0.20325526    -0.27700
N394        N  0.96866363  0.73636692  0.18657621    -0.35600
C395        C  0.95025173  0.73120658  0.15895129     0.00600
C396        C  0.94313617  0.70090841  0.15847901     0.06700
C397        C  0.95877242  0.68861003  0.18670275    -0.06400
H398        H  0.94244948  0.74829332  0.14070600     0.07300
H399        H  0.95967793  0.66521274  0.19440232     0.08500
Cu400      Cu  0.98581562  0.77739134  0.20310282     0.44200
Cu401      Cu  0.00000448  0.70640528  0.24821611     0.42000
Cu402      Cu  0.02215070  0.77574748  0.28920321     0.43900
N403        N  0.99925863  0.81563739  0.23024683    -0.35100
N404        N  0.01102268  0.81501901  0.26247008    -0.29300
C405        C  0.01469426  0.84337419  0.27397708    -0.05400
C406        C  0.00508057  0.86272527  0.24759306     0.06800
C407        C  0.99558494  0.84442474  0.22017235     0.00600
H408        H  0.02383171  0.84942987  0.29959231     0.08200
H409        H  0.98590606  0.85147590  0.19518087     0.07300
N410        N  0.03376885  0.73377793  0.30901544    -0.36500
N411        N  0.02555014  0.70826989  0.29398422    -0.28700
C412        C  0.03694456  0.68515673  0.31267518    -0.04000
C413        C  0.05351054  0.69670774  0.34052324     0.04600
C414        C  0.05080800  0.72759877  0.33756380     0.02700
H415        H  0.03389923  0.66171114  0.30607087     0.07800
H416        H  0.06056617  0.74436093  0.35482079     0.06700
N417        N  0.25017769  0.92170597  0.20705097    -0.27700
N418        N  0.22474837  0.91758217  0.18962119    -0.35600
C419        C  0.23073231  0.90327470  0.15897705     0.00600
C420        C  0.26143064  0.89841640  0.15671624     0.06700
C421        C  0.27296632  0.91016430  0.18791614    -0.06400
H422        H  0.21393124  0.89686744  0.13969469     0.07300
H423        H  0.29614585  0.90990560  0.19645631     0.08500
Cu424      Cu  0.18285493  0.93110830  0.20835148     0.44200
Cu425      Cu  0.25293442  0.94302706  0.25597812     0.42000
Cu426      Cu  0.18254812  0.96675837  0.29448703     0.43900
N427        N  0.14395070  0.94509620  0.23420695    -0.35100
N428        N  0.14401878  0.95707388  0.26631008    -0.29300
C429        C  0.11559144  0.96230316  0.27656842    -0.05400
C430        C  0.09670028  0.95354338  0.24946805     0.06800
C431        C  0.11535207  0.94280669  0.22294014     0.00600
H432        H  0.10919555  0.97194419  0.30182068     0.08200
H433        H  0.10862532  0.93336321  0.19772338     0.07300
N434        N  0.22389611  0.97694178  0.31608304    -0.36500
N435        N  0.24972370  0.96787747  0.30246996    -0.28700
C436        C  0.27229936  0.97910520  0.32210014    -0.04000
C437        C  0.25998480  0.99604504  0.34927147     0.04600
C438        C  0.22929032  0.99437162  0.34446411     0.02700
H439        H  0.29589363  0.97604858  0.31628856     0.07800
H440        H  0.21213832  0.00535243  0.36014751     0.06700
O441        O  0.18847999  0.31102702  0.03600189    -0.73400
O442        O  0.14257084  0.26481557  0.96297260    -0.74300
O443        O  0.18803482  0.30979675  0.96098996    -0.63000
O444        O  0.14242167  0.26644283  0.03808120    -0.71400
O445        O  0.10763410  0.30220456  0.03738217    -0.70900
O446        O  0.15322476  0.34531081  0.96056626    -0.62200
O447        O  0.10781900  0.30060733  0.96156154    -0.74700
O448        O  0.15330065  0.34647801  0.03607366    -0.73500
Cu449      Cu  0.16657086  0.28677430  0.99955719     1.04600
Cu450      Cu  0.12925645  0.32488580  0.99885002     1.04300
C451        C  0.17819367  0.33594939  0.04749290     0.92800
C452        C  0.11811742  0.27545732  0.95054718     0.92000
C453        C  0.17800772  0.33473835  0.94888118     0.84100
C454        C  0.11776842  0.27745758  0.04973307     0.90400
O455        O  0.64126311  0.13417591  0.96585504    -0.73400
O456        O  0.68926081  0.08896062  0.03826703    -0.74300
O457        O  0.68712864  0.09003988  0.96315277    -0.63000
O458        O  0.64303315  0.13319655  0.04074433    -0.71400
O459        O  0.60810994  0.09802300  0.04050944    -0.70900
O460        O  0.65305168  0.05386336  0.96416286    -0.62200
O461        O  0.65399011  0.05373420  0.03993601    -0.74700
O462        O  0.60727034  0.09808425  0.96519237    -0.73500
Cu463      Cu  0.66637391  0.11280449  0.00204213     1.04600
Cu464      Cu  0.62943201  0.07464072  0.00253229     1.04300
C465        C  0.61667847  0.12342222  0.95386368     0.92800
C466        C  0.67907405  0.06427866  0.05060069     0.92000
C467        C  0.67689096  0.06532826  0.95095151     0.84100
C468        C  0.61823601  0.12277492  0.05263316     0.90400
O469        O  0.84867384  0.56291660  0.04313210    -0.73400
O470        O  0.89013807  0.60679180  0.96372470    -0.74300
O471        O  0.89175638  0.60960055  0.03943252    -0.63000
O472        O  0.84700974  0.56015708  0.96773808    -0.71400
O473        O  0.81076786  0.59429050  0.96674564    -0.70900
O474        O  0.85507423  0.64349792  0.03897103    -0.62200
O475        O  0.85409805  0.64130823  0.96370073    -0.74700
O476        O  0.81199642  0.59655538  0.04219879    -0.73500
Cu477      Cu  0.87068215  0.58371148  0.00351792     1.04600
Cu478      Cu  0.83169557  0.62008474  0.00286037     1.04300
C479        C  0.82381383  0.57286414  0.05541137     0.92800
C480        C  0.87867687  0.63090184  0.95119076     0.92000
C481        C  0.88033843  0.63417686  0.05059685     0.84100
C482        C  0.82187770  0.56953716  0.95564091     0.90400
O483        O  0.39419994  0.79740344  0.03516039    -0.73400
O484        O  0.34946560  0.84095125  0.95796124    -0.74300
O485        O  0.34848479  0.84221319  0.03368013    -0.63000
O486        O  0.39488821  0.79629607  0.95948473    -0.71400
O487        O  0.35958503  0.76136610  0.95925845    -0.70900
O488        O  0.31477350  0.80591714  0.03540116    -0.62200
O489        O  0.31384813  0.80613977  0.96001496    -0.74700
O490        O  0.36028608  0.76127257  0.03446074    -0.73500
Cu491      Cu  0.37298348  0.82045537  0.99659339     1.04600
Cu492      Cu  0.33593395  0.78247099  0.99729143     1.04300
C493        C  0.38465586  0.77221152  0.04681779     0.92800
C494        C  0.32442353  0.83047356  0.94707937     0.92000
C495        C  0.32417276  0.83131861  0.04644344     0.84100
C496        C  0.38453211  0.77153592  0.94750745     0.90400
O497        O  0.14269197  0.64096845  0.46021654    -0.73400
O498        O  0.19126184  0.59656238  0.53349529    -0.74300
O499        O  0.18924705  0.59727423  0.45804104    -0.63000
O500        O  0.14447861  0.64059376  0.53508719    -0.71400
O501        O  0.11089774  0.60375460  0.53650446    -0.70900
O502        O  0.15515263  0.56131232  0.45841293    -0.62200
O503        O  0.15756744  0.56011786  0.53327725    -0.74700
O504        O  0.10862186  0.60490517  0.46099555    -0.73500
Cu505      Cu  0.16811298  0.62010150  0.49669756     1.04600
Cu506      Cu  0.13187311  0.58129632  0.49735158     1.04300
C507        C  0.11780505  0.63016887  0.44914769     0.92800
C508        C  0.18234562  0.57094334  0.54463205     0.92000
C509        C  0.17951045  0.57231549  0.44604298     0.84100
C510        C  0.12048419  0.62906497  0.54767989     0.90400
O511        O  0.31198530  0.09442664  0.46363671    -0.73400
O512        O  0.35748347  0.14076324  0.53811520    -0.74300
O513        O  0.35757493  0.13923447  0.46319695    -0.63000
O514        O  0.31132699  0.09653259  0.53900511    -0.71400
O515        O  0.34638960  0.06101508  0.54125435    -0.70900
O516        O  0.39193787  0.10297904  0.46381116    -0.62200
O517        O  0.39199108  0.10492305  0.53885109    -0.74700
O518        O  0.34666348  0.05884777  0.46572622    -0.73500
Cu519      Cu  0.33330549  0.11896758  0.50091882     1.04600
Cu520      Cu  0.37038337  0.08067228  0.50244896     1.04300
C521        C  0.32239275  0.06933524  0.45257436     0.92800
C522        C  0.38214339  0.13010974  0.55016444     0.92000
C523        C  0.38204768  0.12790634  0.45173440     0.84100
C524        C  0.32175693  0.07233120  0.55237344     0.90400
O525        O  0.81197952  0.30845959  0.54281287    -0.73400
O526        O  0.85555028  0.26270934  0.46674596    -0.74300
O527        O  0.85668260  0.26290340  0.54180338    -0.63000
O528        O  0.81060364  0.30824497  0.46781567    -0.71400
O529        O  0.84677032  0.34257661  0.46590864    -0.70900
O530        O  0.89155970  0.29817522  0.54204894    -0.62200
O531        O  0.89121726  0.29726574  0.46659933    -0.74700
O532        O  0.84690208  0.34381905  0.54101258    -0.73500
Cu533      Cu  0.83248766  0.28434602  0.50484232     1.04600
Cu534      Cu  0.87037238  0.32164170  0.50389107     1.04300
C535        C  0.82216288  0.33373177  0.55339138     0.92800
C536        C  0.88051947  0.27263813  0.45477684     0.92000
C537        C  0.88143081  0.27324939  0.55380832     0.84100
C538        C  0.82153670  0.33249758  0.45518454     0.90400
O539        O  0.61230525  0.79539832  0.45912086    -0.73400
O540        O  0.65723399  0.83861250  0.53607650    -0.74300
O541        O  0.65786056  0.83976519  0.46054951    -0.63000
O542        O  0.61175782  0.79424400  0.53444111    -0.71400
O543        O  0.64651099  0.75865554  0.53407639    -0.70900
O544        O  0.69252528  0.80425059  0.46013344    -0.62200
O545        O  0.69237599  0.80315292  0.53519640    -0.74700
O546        O  0.64686807  0.75966707  0.45907103    -0.73500
Cu547      Cu  0.63359339  0.81825666  0.49755064     1.04600
Cu548      Cu  0.67077570  0.78020214  0.49709651     1.04300
C549        C  0.62245143  0.77061283  0.44685205     0.92800
C550        C  0.68189316  0.82768856  0.54763407     0.92000
C551        C  0.68256232  0.82926471  0.44845208     0.84100
C552        C  0.62185566  0.76922806  0.54611217     0.90400
C553        C  0.27599815  0.01431363  0.37586406    -0.06500
C554        C  0.26827551  0.04472099  0.37933927    -0.17700
C555        C  0.28359685  0.06359905  0.40286907     0.10700
C556        C  0.30641922  0.05157734  0.42496359    -0.06500
C557        C  0.31408591  0.02103957  0.42114807    -0.17700
C558        C  0.29922806  0.00241637  0.39705323     0.10700
S559        S  0.27389072  0.10288784  0.40162847    -0.32700
S560        S  0.31016660  0.96340825  0.39585555    -0.32700
H561        H  0.28109904  0.95221823  0.38982009     0.28700
H562        H  0.30393233  0.11264209  0.40065872     0.28700
H563        H  0.25085577  0.05412593  0.36258047     0.19300
H564        H  0.33142185  0.01121743  0.43765982     0.19300
C565        C  0.30719410  0.84834719  0.07423529    -0.06500
C566        C  0.32042872  0.87429685  0.08880146    -0.17700
C567        C  0.30594334  0.89141222  0.11493196     0.10700
C568        C  0.27768461  0.88217255  0.12809611    -0.06500
C569        C  0.26436565  0.85640295  0.11368643    -0.17700
C570        C  0.27840646  0.83967755  0.08693157     0.10700
S571        S  0.32414738  0.92559580  0.12876908    -0.32700
S572        S  0.25778330  0.80782851  0.07044684    -0.32700
H573        H  0.25957773  0.81726007  0.03490149     0.28700
H574        H  0.29745261  0.94235953  0.13152154     0.28700
H575        H  0.34219260  0.88174168  0.07944785     0.19300
H576        H  0.24266592  0.84909633  0.12343762     0.19300
C577        C  0.10019393  0.64709761  0.42201740    -0.06500
C578        C  0.11467149  0.67052837  0.40364645    -0.17700
C579        C  0.10030388  0.68654131  0.37659975     0.10700
C580        C  0.07036568  0.67957164  0.36761462    -0.06500
C581        C  0.05576759  0.65618812  0.38560439    -0.17700
C582        C  0.06999183  0.64030530  0.41299682     0.10700
S583        S  0.12208732  0.71444560  0.35333394    -0.32700
S584        S  0.04762989  0.61280808  0.43607830    -0.32700
H585        H  0.05553857  0.62345667  0.46997067     0.28700
H586        H  0.10949543  0.70862011  0.31981003     0.28700
H587        H  0.13779810  0.67605232  0.40966846     0.19300
H588        H  0.03265710  0.65093659  0.37908621     0.19300
C589        C  0.89624149  0.65171004  0.07765636    -0.06500
C590        C  0.89214181  0.64399392  0.11336281    -0.17700
C591        C  0.90593248  0.66045725  0.14044300     0.10700
C592        C  0.92505727  0.68475147  0.13162841    -0.06500
C593        C  0.92837504  0.69289332  0.09582405    -0.17700
C594        C  0.91438245  0.67654952  0.06882529     0.10700
S595        S  0.89670974  0.65032085  0.18548856    -0.32700
S596        S  0.92090677  0.68832752  0.02372494    -0.32700
H597        H  0.91915894  0.65955383  0.00858241     0.28700
H598        H  0.89740242  0.67991197  0.19853589     0.28700
H599        H  0.87755865  0.62537828  0.12021430     0.19300
H600        H  0.94285900  0.71148070  0.08865890     0.19300
C601        C  0.69964535  0.84676683  0.42135134    -0.06500
C602        C  0.68812033  0.87487610  0.41074932    -0.17700
C603        C  0.70353442  0.89334341  0.38686416     0.10700
C604        C  0.73129054  0.88376950  0.37279029    -0.06500
C605        C  0.74307619  0.85596394  0.38334403    -0.17700
C606        C  0.72742042  0.83714976  0.40667417     0.10700
S607        S  0.68702641  0.92935256  0.37667234    -0.32700
S608        S  0.74402094  0.80092235  0.41510618    -0.32700
H609        H  0.71803068  0.78517597  0.40487681     0.28700
H610        H  0.71447152  0.94475411  0.37373068     0.28700
H611        H  0.66705995  0.88293622  0.42149469     0.19300
H612        H  0.76407839  0.84827286  0.37218939     0.19300
C613        C  0.73041697  0.01115405  0.12383864    -0.06500
C614        C  0.70323560  0.02443208  0.13472066    -0.17700
C615        C  0.68639133  0.04247999  0.11170103     0.10700
C616        C  0.69676511  0.04745120  0.07684496    -0.06500
C617        C  0.72391312  0.03454392  0.06589576    -0.17700
C618        C  0.74047888  0.01596276  0.08860695     0.10700
S619        S  0.65223651  0.05902283  0.12857751    -0.32700
S620        S  0.77276311  0.99737666  0.06985488    -0.32700
H621        H  0.76792414  0.97006813  0.08778400     0.28700
H622        H  0.65331465  0.08512234  0.10757457     0.28700
H623        H  0.69527868  0.02130672  0.16164845     0.19300
H624        H  0.73157914  0.03788473  0.03885574     0.19300
C625        C  0.89653677  0.25583299  0.42638745    -0.06500
C626        C  0.88019304  0.23515246  0.40580489    -0.17700
C627        C  0.89348513  0.21987485  0.37738729     0.10700
C628        C  0.92386361  0.22529983  0.36903149    -0.06500
C629        C  0.94026187  0.24584403  0.38931152    -0.17700
C630        C  0.92729351  0.26053646  0.41828497     0.10700
S631        S  0.87024871  0.19446607  0.35224253    -0.32700
S632        S  0.95198052  0.28315809  0.44501199    -0.32700
H633        H  0.94145687  0.27084006  0.47705334     0.28700
H634        H  0.88475628  0.19897658  0.31951746     0.28700
H635        H  0.85664557  0.23122455  0.41135548     0.19300
H636        H  0.96381059  0.24951800  0.38341545     0.19300
C637        C  0.07065062  0.23188262  0.13419116    -0.06500
C638        C  0.07865865  0.21645629  0.10300332    -0.17700
C639        C  0.09359717  0.23081599  0.07510490     0.10700
C640        C  0.10083931  0.26153244  0.07781867    -0.06500
C641        C  0.09253809  0.27725591  0.10850536    -0.17700
C642        C  0.07834026  0.26273662  0.13712188     0.10700
S643        S  0.10143477  0.20912056  0.03588857    -0.32700
S644        S  0.07286193  0.28351228  0.17782441    -0.32700
H645        H  0.08531727  0.31089757  0.16641713     0.28700
H646        H  0.09458495  0.23281260  0.01258172     0.28700
H647        H  0.07272308  0.19303809  0.09982483     0.19300
H648        H  0.09813182  0.30082084  0.11044683     0.19300
C649        C  0.72924627  0.87189720  0.63195129    -0.06500
C650        C  0.74037837  0.87307380  0.59703303    -0.17700
C651        C  0.72519018  0.85917087  0.56897355     0.10700
C652        C  0.69831921  0.84347732  0.57579850    -0.06500
C653        C  0.68738515  0.84173555  0.61058532    -0.17700
C654        C  0.70279329  0.85519466  0.63877378     0.10700
S655        S  0.74089314  0.86271490  0.52500703    -0.32700
S656        S  0.68853602  0.84834233  0.68282455    -0.32700
H657        H  0.71699644  0.84647930  0.69886839     0.28700
H658        H  0.71331352  0.86295127  0.50689920     0.28700
H659        H  0.76060279  0.88568196  0.59130338     0.19300
H660        H  0.66715691  0.82898821  0.61596846     0.19300
C661        C  0.72497807  0.01702355  0.86952518    -0.06500
C662        C  0.72771782  0.04830474  0.87183341    -0.17700
C663        C  0.71134951  0.06478686  0.89690557     0.10700
C664        C  0.69283485  0.04957256  0.92171091    -0.06500
C665        C  0.68994756  0.01819979  0.91899011    -0.17700
C666        C  0.70573049  0.00185251  0.89328756     0.10700
S667        S  0.71362649  0.10515638  0.89406530    -0.32700
S668        S  0.70103099  0.96161768  0.89294342    -0.32700
H669        H  0.73054510  0.95486173  0.88232600     0.28700
H670        H  0.68267062  0.10975250  0.89948962     0.28700
H671        H  0.74192207  0.06010493  0.85306835     0.19300
H672        H  0.67582027  0.00613074  0.93757912     0.19300
C673        C  0.89765398  0.25624428  0.58201523    -0.06500
C674        C  0.88250495  0.23231685  0.59870781    -0.17700
C675        C  0.89546124  0.21622623  0.62664715     0.10700
C676        C  0.92452160  0.22379522  0.63841269    -0.06500
C677        C  0.93977362  0.24760798  0.62211010    -0.17700
C678        C  0.92707207  0.26347113  0.59374830     0.10700
S679        S  0.87309502  0.18725792  0.64717361    -0.32700
S680        S  0.95040926  0.29152276  0.57312795    -0.32700
H681        H  0.94542878  0.28043606  0.53873765     0.28700
H682        H  0.88366553  0.19235239  0.68181754     0.28700
H683        H  0.85996108  0.22636140  0.59055854     0.19300
H684        H  0.96230464  0.25320514  0.63072873     0.19300
C685        C  0.10140070  0.25805681  0.92380901    -0.06500
C686        C  0.09561349  0.22769385  0.93073472    -0.17700
C687        C  0.07746269  0.21058280  0.90826978     0.10700
C688        C  0.06662286  0.22330321  0.87620913    -0.06500
C689        C  0.07313752  0.25367178  0.86899763    -0.17700
C690        C  0.09016270  0.27111807  0.89240661     0.10700
S691        S  0.06703697  0.17387731  0.92424028    -0.32700
S692        S  0.09795061  0.30944456  0.87985237    -0.32700
H693        H  0.12697497  0.31027960  0.89453726     0.28700
H694        H  0.03706055  0.17611160  0.91274469     0.28700
H695        H  0.10417957  0.21749730  0.95475448     0.19300
H696        H  0.06551647  0.26391171  0.84453636     0.19300
C697        C  0.27343218  0.03400354  0.63982329    -0.06500
C698        C  0.26239771  0.03099851  0.60502636    -0.17700
C699        C  0.27810760  0.04257733  0.57590750     0.10700
C700        C  0.30543461  0.05774665  0.58148638    -0.06500
C701        C  0.31650046  0.06102688  0.61603782    -0.17700
C702        C  0.30063530  0.04982100  0.64526759     0.10700
S703        S  0.26238338  0.03688993  0.53229887    -0.32700
S704        S  0.31544148  0.05831226  0.68862554    -0.32700
H705        H  0.28720256  0.06216676  0.70474088     0.28700
H706        H  0.28991505  0.03574802  0.51407142     0.28700
H707        H  0.24176172  0.01879804  0.60026569     0.19300
H708        H  0.33714448  0.07337996  0.62036568     0.19300
C709        C  0.27642946  0.87514225  0.86302734    -0.06500
C710        C  0.26205866  0.86875732  0.89540569    -0.17700
C711        C  0.27726794  0.85466035  0.92331751     0.10700
C712        C  0.30767132  0.84649779  0.91910521    -0.06500
C713        C  0.32210432  0.85253903  0.88681504    -0.17700
C714        C  0.30670546  0.86597567  0.85850636     0.10700
S715        S  0.25699302  0.84895561  0.96418983    -0.32700
S716        S  0.32643268  0.86848646  0.81682282    -0.32700
H717        H  0.30104312  0.86235026  0.79585366     0.28700
H718        H  0.28168203  0.85421881  0.98659190     0.28700
H719        H  0.23900488  0.87568347  0.89958838     0.19300
H720        H  0.34523733  0.84558214  0.88312479     0.19300
C721        C  0.10349093  0.64529587  0.57512902    -0.06500
C722        C  0.10166822  0.63290220  0.60920589    -0.17700
C723        C  0.08716705  0.64818877  0.63681692     0.10700
C724        C  0.07260107  0.67595668  0.62990070    -0.06500
C725        C  0.07474076  0.68832001  0.59559280    -0.17700
C726        C  0.08999026  0.67337406  0.56830809     0.10700
S727        S  0.09050145  0.63205795  0.68051362    -0.32700
S728        S  0.09077617  0.69084520  0.52509249    -0.32700
H729        H  0.08874055  0.66390995  0.50583251     0.28700
H730        H  0.09461724  0.65980342  0.69768406     0.28700
H731        H  0.11272018  0.61168478  0.61469640     0.19300
H732        H  0.06384529  0.70949773  0.58962360     0.19300
C733        C  0.92919702  0.67906657  0.87179211    -0.06500
C734        C  0.92053763  0.64904877  0.86590369    -0.17700
C735        C  0.90361310  0.63299550  0.89089869     0.10700
C736        C  0.89438203  0.64720305  0.92252955    -0.06500
C737        C  0.90225583  0.67723047  0.92823764    -0.17700
C738        C  0.92054195  0.69283262  0.90426041     0.10700
S739        S  0.89379048  0.59472854  0.88031487    -0.32700
S740        S  0.93426800  0.72874533  0.91908966    -0.32700
H741        H  0.96353034  0.72412309  0.90606499     0.28700
H742        H  0.86629423  0.59456078  0.89861592     0.28700
H743        H  0.92654798  0.63792933  0.84137410     0.19300
H744        H  0.89551281  0.68813014  0.95264785     0.19300
C745        C  0.77260461  0.51365432  0.88266595    -0.06500
C746        C  0.76932734  0.54495782  0.88122149    -0.17700
C747        C  0.78579002  0.56380535  0.90366316     0.10700
C748        C  0.80538233  0.55113095  0.92924879    -0.06500
C749        C  0.80860303  0.51971036  0.93054700    -0.17700
C750        C  0.79232355  0.50092680  0.90783697     0.10700
S751        S  0.78186680  0.60370447  0.89675552    -0.32700
S752        S  0.79662246  0.46091880  0.91347611    -0.32700
H753        H  0.76679981  0.45364125  0.90476117     0.28700
H754        H  0.81254444  0.61005564  0.90139988     0.28700
H755        H  0.75456696  0.55487310  0.86155503     0.19300
H756        H  0.82325268  0.50957658  0.95016050     0.19300
C757        C  0.80553899  0.35147898  0.58033310    -0.06500
C758        C  0.82175784  0.37110079  0.60230265    -0.17700
C759        C  0.80752330  0.38823031  0.62852353     0.10700
C760        C  0.77632783  0.38471077  0.63454224    -0.06500
C761        C  0.76004438  0.36551914  0.61206437    -0.17700
C762        C  0.77402577  0.34962104  0.58463397     0.10700
S763        S  0.83032311  0.41546350  0.65135530    -0.32700
S764        S  0.74998935  0.32877578  0.55509053    -0.32700
H765        H  0.76524202  0.33769298  0.52411187     0.28700
H766        H  0.80795313  0.43780737  0.65178077     0.28700
H767        H  0.84578512  0.37350121  0.59873580     0.19300
H768        H  0.73605352  0.36293659  0.61562334     0.19300
C769        C  0.59980726  0.14050202  0.92621017    -0.06500
C770        C  0.61368246  0.16594819  0.91123455    -0.17700
C771        C  0.60031040  0.18223254  0.88373708     0.10700
C772        C  0.57202456  0.17333568  0.87059577    -0.06500
C773        C  0.55799360  0.14802944  0.88528799    -0.17700
C774        C  0.57111187  0.13194689  0.91327199     0.10700
S775        S  0.62142495  0.21312772  0.86543132    -0.32700
S776        S  0.54925837  0.10169835  0.93176030    -0.32700
H777        H  0.55247457  0.11191216  0.96691027     0.28700
H778        H  0.61272374  0.20794141  0.83008671     0.28700
H779        H  0.63563349  0.17300020  0.92035691     0.19300
H780        H  0.53607517  0.14131267  0.87565897     0.19300
C781        C  0.43791581  0.17819178  0.62443919    -0.06500
C782        C  0.40726263  0.18515960  0.62208433    -0.17700
C783        C  0.38824230  0.16948992  0.59902388     0.10700
C784        C  0.40028636  0.14696190  0.57657421    -0.06500
C785        C  0.43119121  0.14049781  0.57872967    -0.17700
C786        C  0.45002225  0.15584177  0.60215137     0.10700
S787        S  0.34876505  0.17815375  0.60140400    -0.32700
S788        S  0.48946178  0.14658785  0.60130535    -0.32700
H789        H  0.49966728  0.17574579  0.60900667     0.28700
H790        H  0.33974476  0.14785237  0.60176982     0.28700
H791        H  0.39780889  0.20209465  0.63947768     0.19300
H792        H  0.44104239  0.12367848  0.56150444     0.19300
C793        C  0.22730899  0.37939952  0.86496845    -0.06500
C794        C  0.20705762  0.39574467  0.88594132    -0.17700
C795        C  0.19151084  0.38224019  0.91408160     0.10700
C796        C  0.19511128  0.35106897  0.92081954    -0.06500
C797        C  0.21530390  0.33473657  0.89952217    -0.17700
C798        C  0.23121616  0.34840915  0.87177540     0.10700
S799        S  0.16913009  0.40669040  0.94155440    -0.32700
S800        S  0.25498021  0.32464646  0.84505513    -0.32700
H801        H  0.24908753  0.33959933  0.81289595     0.28700
H802        H  0.17989532  0.39456839  0.97365720     0.28700
H803        H  0.20426571  0.41962173  0.88131920     0.19300
H804        H  0.21827401  0.31086065  0.90392332     0.19300
C805        C  0.23057817  0.51962194  0.62428508    -0.06500
C806        C  0.24543186  0.54239135  0.60527285    -0.17700
C807        C  0.23091840  0.55883203  0.57849528     0.10700
C808        C  0.20013268  0.55351585  0.57120610    -0.06500
C809        C  0.18553449  0.53038010  0.58988230    -0.17700
C810        C  0.20042444  0.51302752  0.61536799     0.10700
S811        S  0.25352123  0.58516653  0.55388194    -0.32700
S812        S  0.17994935  0.48162462  0.63341363    -0.32700
H813        H  0.20473630  0.46200030  0.63321627     0.28700
H814        H  0.24302466  0.57542766  0.52059252     0.28700
H815        H  0.26870497  0.54739797  0.61113790     0.19300
H816        H  0.16224039  0.52527454  0.58423844     0.19300
C817        C  0.42842894  0.72358565  0.86224278    -0.06500
C818        C  0.44505542  0.74338613  0.88339526    -0.17700
C819        C  0.43186590  0.75841361  0.91213395     0.10700
C820        C  0.40078363  0.75472213  0.91918753    -0.06500
C821        C  0.38424871  0.73488329  0.89768921    -0.17700
C822        C  0.39762048  0.71945561  0.86943367     0.10700
S823        S  0.45650836  0.78022694  0.93988292    -0.32700
S824        S  0.37385824  0.69572069  0.84275254    -0.32700
H825        H  0.38887946  0.70115680  0.81053857     0.28700
H826        H  0.44431429  0.76919623  0.97180357     0.28700
H827        H  0.46886230  0.74620676  0.87837447     0.19300
H828        H  0.36043352  0.73180465  0.90234135     0.19300
C829        C  0.56781530  0.71958689  0.62086465    -0.06500
C830        C  0.59862780  0.71358032  0.61828708    -0.17700
C831        C  0.61706075  0.73000434  0.59527571     0.10700
C832        C  0.60425481  0.75227171  0.57297613    -0.06500
C833        C  0.57323988  0.75796758  0.57552418    -0.17700
C834        C  0.55498046  0.74188736  0.59899863     0.10700
S835        S  0.65681025  0.72259583  0.59756632    -0.32700
S836        S  0.51531578  0.75012695  0.59877046    -0.32700
H837        H  0.50593041  0.72064450  0.60629798     0.28700
H838        H  0.66488972  0.75316737  0.59764723     0.28700
H839        H  0.60865097  0.69681061  0.63548997     0.19300
H840        H  0.56287988  0.77465523  0.55851512     0.19300
C841        C  0.19548368  0.35280529  0.07396622    -0.06500
C842        C  0.22334022  0.36472642  0.06402884    -0.17700
C843        C  0.24013719  0.38222292  0.08761440     0.10700
C844        C  0.22935132  0.38708510  0.12252211    -0.06500
C845        C  0.20134787  0.37504899  0.13223671    -0.17700
C846        C  0.18448168  0.35788846  0.10848829     0.10700
S847        S  0.27394895  0.39913831  0.07055491    -0.32700
S848        S  0.14970982  0.34206349  0.12419661    -0.32700
H849        H  0.15245995  0.31508694  0.10507705     0.28700
H850        H  0.27023254  0.42638375  0.08893224     0.28700
H851        H  0.23159183  0.36119846  0.03727334     0.19300
H852        H  0.19285950  0.37822720  0.15892641     0.19300
C853        C  0.22701657  0.52002497  0.36709047    -0.06500
C854        C  0.23889776  0.54752015  0.37839378    -0.17700
C855        C  0.22415903  0.56521600  0.40366052     0.10700
C856        C  0.19638122  0.55545014  0.41818560    -0.06500
C857        C  0.18439835  0.52797508  0.40622105    -0.17700
C858        C  0.19945542  0.51011803  0.38140083     0.10700
S859        S  0.24235129  0.59983590  0.41568645    -0.32700
S860        S  0.18296563  0.47426854  0.37070752    -0.32700
H861        H  0.21044025  0.45876456  0.36849623     0.28700
H862        H  0.24550601  0.59130737  0.45147409     0.28700
H863        H  0.25994992  0.55538339  0.36732784     0.19300
H864        H  0.16334430  0.51976978  0.41687074     0.19300
C865        C  0.42977069  0.72216008  0.12990535    -0.06500
C866        C  0.44305275  0.74821217  0.11610961    -0.17700
C867        C  0.42955113  0.76463725  0.08871280     0.10700
C868        C  0.40132836  0.75542012  0.07497718    -0.06500
C869        C  0.38796104  0.72941747  0.08935067    -0.17700
C870        C  0.40160253  0.71298971  0.11663581     0.10700
S871        S  0.45028574  0.79647072  0.07230254    -0.32700
S872        S  0.38096673  0.68162577  0.13459432    -0.32700
H873        H  0.39003160  0.68632667  0.16991214     0.28700
H874        H  0.44969727  0.78632730  0.03694928     0.28700
H875        H  0.46473610  0.75537146  0.12602998     0.19300
H876        H  0.36625318  0.72198702  0.07984669     0.19300
C877        C  0.56901099  0.72189831  0.37069298    -0.06500
C878        C  0.59961752  0.71526750  0.37427287    -0.17700
C879        C  0.61792395  0.73153069  0.39750813     0.10700
C880        C  0.60515308  0.75425086  0.41918318    -0.06500
C881        C  0.57437763  0.76075954  0.41541512    -0.17700
C882        C  0.55627083  0.74488771  0.39160868     0.10700
S883        S  0.65752829  0.72320599  0.39635487    -0.32700
S884        S  0.51686190  0.75422457  0.39033769    -0.32700
H885        H  0.50682600  0.72482558  0.38366617     0.28700
H886        H  0.66625240  0.75359308  0.39605864     0.28700
H887        H  0.60962021  0.69802687  0.35773667     0.19300
H888        H  0.56402555  0.77787429  0.43180626     0.19300
C889        C  0.77649675  0.52140010  0.13477669    -0.06500
C890        C  0.77198088  0.55250445  0.13255590    -0.17700
C891        C  0.78814108  0.57010992  0.10833895     0.10700
C892        C  0.80837275  0.55619735  0.08437483    -0.06500
C893        C  0.81319666  0.52504662  0.08722489    -0.17700
C894        C  0.79754429  0.50759469  0.11201321     0.10700
S895        S  0.78319751  0.61023892  0.11103146    -0.32700
S896        S  0.80469609  0.46769953  0.11236220    -0.32700
H897        H  0.77532414  0.45909367  0.12150353     0.28700
H898        H  0.81383393  0.61681812  0.10606871     0.28700
H899        H  0.75642453  0.56330091  0.15065162     0.19300
H900        H  0.82865084  0.51395162  0.06927767     0.19300
C901        C  0.77354353  0.38509803  0.37866924    -0.06500
C902        C  0.79863654  0.36807820  0.36820119    -0.17700
C903        C  0.81420302  0.35007984  0.39245883     0.10700
C904        C  0.80478412  0.34922452  0.42813930    -0.06500
C905        C  0.77988030  0.36618066  0.43881428    -0.17700
C906        C  0.76446200  0.38445984  0.41469126     0.10700
S907        S  0.84562093  0.32842483  0.37626617    -0.32700
S908        S  0.73491996  0.40784734  0.43225105    -0.32700
H909        H  0.74128186  0.43261844  0.41029676     0.28700
H910        H  0.84187849  0.30409705  0.39967075     0.28700
H911        H  0.80577731  0.36819334  0.34070162     0.19300
H912        H  0.77308625  0.36603967  0.46644378     0.19300
C913        C  0.60143477  0.13994448  0.08028810    -0.06500
C914        C  0.61208210  0.16864054  0.08965172    -0.17700
C915        C  0.59830138  0.18580982  0.11613370     0.10700
C916        C  0.57242683  0.17472277  0.13345494    -0.06500
C917        C  0.56174204  0.14611096  0.12435064    -0.17700
C918        C  0.57566875  0.12874706  0.09811710     0.10700
S919        S  0.61632505  0.22061090  0.12800556    -0.32700
S920        S  0.55930705  0.09252747  0.08942022    -0.32700
H921        H  0.55249198  0.09979103  0.05394874     0.28700
H922        H  0.61168192  0.21712484  0.16471681     0.28700
H923        H  0.63185231  0.17773297  0.07679488     0.19300
H924        H  0.54193230  0.13729466  0.13741306     0.19300
C925        C  0.43646468  0.17604263  0.37722510    -0.06500
C926        C  0.42239124  0.14912085  0.36699994    -0.17700
C927        C  0.40405125  0.13316134  0.39053701     0.10700
C928        C  0.39952938  0.14430165  0.42510462    -0.06500
C929        C  0.41345594  0.17103495  0.43549526    -0.17700
C930        C  0.43243640  0.18659327  0.41237621     0.10700
S931        S  0.38665369  0.09911344  0.37473659    -0.32700
S932        S  0.45255419  0.21811508  0.43060659    -0.32700
H933        H  0.47944332  0.21191473  0.41239446     0.28700
H934        H  0.36083567  0.10102606  0.39607859     0.28700
H935        H  0.42511545  0.14071863  0.34021883     0.19300
H936        H  0.41056072  0.17913689  0.46241694     0.19300
loop_ 
_geom_bond_atom_site_label_1 
_geom_bond_atom_site_label_2 
_geom_bond_distance 
_geom_bond_site_symmetry_2 
_ccdc_geom_bond_type 
N1            N2   1.321       .  A
N1            C5   1.344       .  A
N1           Cu9   2.069       .  S
N2            C3   1.343       .  A
N2           Cu8   2.068       .  S
C3            C4   1.386       .  A
C3            H6   1.081       .  S
C4            C5   1.386       .  A
C4          C925   1.483       .  S
C5            H7   1.082       .  S
Cu8          N11   2.068       .  S
Cu9          N19   2.069       .  S
Cu10         N12   2.075       .  S
Cu10         N18   2.075       .  S
N11          N12   1.322       .  A
N11          C15   1.345       .  A
N12          C13   1.345       .  A
C13          C14   1.382       .  A
C13          H16   1.082       .  S
C14          C15   1.382       .  A
C14          C38   1.466       .  S
C15          H17   1.082       .  S
N18          N19   1.321       .  A
N18          C22   1.345       .  A
N19          C20   1.343       .  A
C20          C21   1.384       .  A
C20          H23   1.082       .  S
C21          C22   1.387       .  A
C21         C916   1.483       .  S
C22          H24   1.081       .  S
O25         Cu33   2.012       .  S
O25          C35   1.277       .  A
O26         Cu33   2.010       .  S
O26          C36   1.278       .  A
O27         Cu33   2.010       .  S
O27          C37   1.277       .  A
O28         Cu33   2.007       .  S
O28          C38   1.277       .  A
O29         Cu34   2.010       .  S
O29          C38   1.278       .  A
O30         Cu34   2.011       .  S
O30          C37   1.278       .  A
O31         Cu34   2.011       .  S
O31          C36   1.277       .  A
O32         Cu34   2.010       .  S
O32          C35   1.278       .  A
Cu33        Cu34   2.372       .  S
C35          C52   1.468       .  S
C36         C100   1.468       .  S
C37          C76   1.468       .  S
N39          N40   1.323       .  A
N39          C43   1.346       .  A
N39         Cu47   2.074       .  S
N40          C41   1.346       .  A
N40         Cu46   2.081       .  S
C41          C42   1.383       .  A
C41          H44   1.082       .  S
C42          C43   1.382       .  A
C42         C889   1.475       .  S
C43          H45   1.082       .  S
Cu46         N49   2.081       .  S
Cu47         N57   2.073       .  S
Cu48         N50   2.071       .  S
Cu48         N56   2.071       .  S
N49          N50   1.323       .  A
N49          C53   1.347       .  A
N50          C51   1.344       .  A
C51          C52   1.381       .  A
C51          H54   1.082       .  S
C52          C53   1.384       .  A
C53          H55   1.082       .  S
N56          N57   1.321       .  A
N56          C60   1.345       .  A
N57          C58   1.344       .  A
C58          C59   1.385       .  A
C58          H61   1.082       .  S
C59          C60   1.385       .  A
C59         C901   1.481       .  S
C60          H62   1.082       .  S
N63          N64   1.322       .  A
N63          C67   1.344       .  A
N63         Cu71   2.071       .  S
N64          C65   1.346       .  A
N64         Cu70   2.079       .  S
C65          C66   1.386       .  A
C65          H68   1.082       .  S
C66          C67   1.383       .  A
C66         C865   1.481       .  S
C67          H69   1.082       .  S
Cu70         N73   2.079       .  S
Cu71         N81   2.071       .  S
Cu72         N74   2.072       .  S
Cu72         N80   2.072       .  S
N73          N74   1.323       .  A
N73          C77   1.346       .  A
N74          C75   1.345       .  A
C75          C76   1.382       .  A
C75          H78   1.082       .  S
C76          C77   1.383       .  A
C77          H79   1.082       .  S
N80          N81   1.322       .  A
N80          C84   1.345       .  A
N81          C82   1.345       .  A
C82          C83   1.383       .  A
C82          H85   1.082       .  S
C83          C84   1.382       .  A
C83         C877   1.475       .  S
C84          H86   1.082       .  S
N87          N88   1.321       .  A
N87          C91   1.343       .  A
N87         Cu95   2.065       .  S
N88          C89   1.345       .  A
N88         Cu94   2.073       .  S
C89          C90   1.387       .  A
C89          H92   1.081       .  S
C90          C91   1.385       .  A
C90         C844   1.482       .  S
C91          H93   1.082       .  S
Cu94         N97   2.073       .  S
Cu95        N105   2.065       .  S
Cu96         N98   2.076       .  S
Cu96        N104   2.076       .  S
N97          N98   1.323       .  A
N97         C101   1.344       .  A
N98          C99   1.346       .  A
C99         C100   1.383       .  A
C99         H102   1.082       .  S
C100        C101   1.382       .  A
C101        H103   1.082       .  S
N104        N105   1.322       .  A
N104        C108   1.344       .  A
N105        C106   1.344       .  A
C106        C107   1.383       .  A
C106        H109   1.082       .  S
C107        C108   1.384       .  A
C107        C853   1.478       .  S
C108        H110   1.082       .  S
N111        N112   1.323       .  A
N111        C115   1.346       .  A
N111       Cu119   2.075       .  S
N112        C113   1.346       .  A
N112       Cu118   2.080       .  S
C113        C114   1.384       .  A
C113        H116   1.082       .  S
C114        C115   1.382       .  A
C114        C817   1.477       .  S
C115        H117   1.082       .  S
Cu118       N121   2.080       .  S
Cu119       N129   2.075       .  S
Cu120       N122   2.073       .  S
Cu120       N128   2.073       .  S
N121        N122   1.323       .  A
N121        C125   1.347       .  A
N122        C123   1.345       .  A
C123        C124   1.382       .  A
C123        H126   1.082       .  S
C124        C125   1.384       .  A
C124        C148   1.469       .  S
C125        H127   1.082       .  S
N128        N129   1.323       .  A
N128        C132   1.345       .  A
N129        C130   1.345       .  A
C130        C131   1.383       .  A
C130        H133   1.082       .  S
C131        C132   1.382       .  A
C131        C829   1.474       .  S
C132        H134   1.082       .  S
O135       Cu143   2.008       .  S
O135        C145   1.277       .  A
O136       Cu143   2.010       .  S
O136        C146   1.278       .  A
O137       Cu143   2.014       .  S
O137        C147   1.278       .  A
O138       Cu143   2.016       .  S
O138        C148   1.278       .  A
O139       Cu144   2.009       .  S
O139        C148   1.277       .  A
O140       Cu144   2.010       .  S
O140        C147   1.278       .  A
O141       Cu144   2.007       .  S
O141        C146   1.277       .  A
O142       Cu144   2.004       .  S
O142        C145   1.277       .  A
Cu143      Cu144   2.372       .  S
C145        C210   1.465       .  S
C146        C162   1.466       .  S
C147        C186   1.469       .  S
N149        N150   1.322       .  A
N149        C153   1.346       .  A
N149       Cu157   2.083       .  S
N150        C151   1.346       .  A
N150       Cu156   2.074       .  S
C151        C152   1.385       .  A
C151        H154   1.082       .  S
C152        C153   1.386       .  A
C152        C793   1.483       .  S
C153        H155   1.082       .  S
Cu156       N159   2.074       .  S
Cu157       N167   2.083       .  S
Cu158       N160   2.076       .  S
Cu158       N166   2.077       .  S
N159        N160   1.323       .  A
N159        C163   1.345       .  A
N160        C161   1.345       .  A
C161        C162   1.382       .  A
C161        H164   1.082       .  S
C162        C163   1.381       .  A
C163        H165   1.082       .  S
N166        N167   1.322       .  A
N166        C170   1.346       .  A
N167        C168   1.345       .  A
C168        C169   1.389       .  A
C168        H171   1.081       .  S
C169        C170   1.388       .  A
C169        C805   1.491       .  S
C170        H172   1.082       .  S
N173        N174   1.323       .  A
N173        C177   1.346       .  A
N173       Cu181   2.077       .  S
N174        C175   1.345       .  A
N174       Cu180   2.079       .  S
C175        C176   1.384       .  A
C175        H178   1.082       .  S
C176        C177   1.383       .  A
C176        C772   1.479       .  S
C177        H179   1.082       .  S
Cu180       N183   2.079       .  S
Cu181       N191   2.076       .  S
Cu182       N184   2.067       .  S
Cu182       N190   2.067       .  S
N183        N184   1.322       .  A
N183        C187   1.347       .  A
N184        C185   1.344       .  A
C185        C186   1.381       .  A
C185        H188   1.082       .  S
C186        C187   1.385       .  A
C187        H189   1.082       .  S
N190        N191   1.322       .  A
N190        C194   1.344       .  A
N191        C192   1.346       .  A
C192        C193   1.384       .  A
C192        H195   1.082       .  S
C193        C194   1.381       .  A
C193        C781   1.474       .  S
C194        H196   1.082       .  S
N197        N198   1.323       .  A
N197        C201   1.346       .  A
N197       Cu205   2.080       .  S
N198        C199   1.345       .  A
N198       Cu204   2.069       .  S
C199        C200   1.382       .  A
C199        H202   1.082       .  S
C200        C201   1.384       .  A
C200        C745   1.476       .  S
C201        H203   1.082       .  S
Cu204       N207   2.069       .  S
Cu205       N215   2.080       .  S
Cu206       N208   2.067       .  S
Cu206       N214   2.067       .  S
N207        N208   1.322       .  A
N207        C211   1.345       .  A
N208        C209   1.344       .  A
C209        C210   1.381       .  A
C209        H212   1.082       .  S
C210        C211   1.382       .  A
C211        H213   1.082       .  S
N214        N215   1.321       .  A
N214        C218   1.343       .  A
N215        C216   1.345       .  A
C216        C217   1.389       .  A
C216        H219   1.081       .  S
C217        C218   1.386       .  A
C217        C760   1.488       .  S
C218        H220   1.082       .  S
N221        N222   1.322       .  A
N221        C225   1.345       .  A
N221       Cu229   2.085   1_455  S
N222        C223   1.345       .  A
N222       Cu228   2.077       .  S
C223        C224   1.387       .  A
C223        H226   1.082       .  S
C224        C225   1.388       .  A
C224        C724   1.490       .  S
C225        H227   1.081       .  S
Cu228       N231   2.077       .  S
Cu229       N239   2.085       .  S
Cu230       N232   2.069       .  S
Cu230       N238   2.069       .  S
N231        N232   1.322   1_455  A
N231        C235   1.346       .  A
N232        C233   1.344       .  A
C233        C234   1.381   1_655  A
C233        H236   1.082       .  S
C234        C235   1.384       .  A
C234        C256   1.467       .  S
C235        H237   1.082       .  S
N238        N239   1.320       .  A
N238        C242   1.343       .  A
N239        C240   1.347       .  A
C240        C241   1.393       .  A
C240        H243   1.081       .  S
C241        C242   1.389       .  A
C241        C733   1.497       .  S
C242        H244   1.079       .  S
O245       Cu253   2.007   1_655  S
O245        C255   1.277   1_665  A
O246       Cu253   2.009       .  S
O246        C256   1.277       .  A
O247       Cu253   2.017   1_655  S
O247        C257   1.278       .  A
O248       Cu253   2.017       .  S
O248        C258   1.278       .  A
O249       Cu254   2.017       .  S
O249        C258   1.278       .  A
O250       Cu254   2.019   1_655  S
O250        C257   1.278       .  A
O251       Cu254   2.011   1_655  S
O251        C256   1.278   1_655  A
O252       Cu254   2.012       .  S
O252        C255   1.278   1_565  A
Cu253      Cu254   2.369       .  S
C255        C296   1.466       .  S
C257        C320   1.473       .  S
C258        C272   1.471       .  S
N259        N260   1.322       .  A
N259        C263   1.345   1_565  A
N259       Cu267   2.071       .  S
N260        C261   1.345   1_565  A
N260       Cu266   2.080       .  S
C261        C262   1.387       .  A
C261        H264   1.082       .  S
C262        C263   1.386       .  A
C262        C697   1.485       .  S
C263        H265   1.081   1_545  S
Cu266       N269   2.080       .  S
Cu267       N277   2.071       .  S
Cu268       N270   2.082       .  S
Cu268       N276   2.082       .  S
N269        N270   1.323       .  A
N269        C273   1.347       .  A
N270        C271   1.347       .  A
C271        C272   1.384       .  A
C271        H274   1.082       .  S
C272        C273   1.383       .  A
C273        H275   1.082       .  S
N276        N277   1.321       .  A
N276        C280   1.345       .  A
N277        C278   1.344       .  A
C278        C279   1.387       .  A
C278        H281   1.081       .  S
C279        C280   1.389       .  A
C279        C709   1.489       .  S
C280        H282   1.082       .  S
N283        N284   1.322       .  A
N283        C287   1.344       .  A
N283       Cu291   2.068       .  S
N284        C285   1.344       .  A
N284       Cu290   2.072       .  S
C285        C286   1.383       .  A
C285        H288   1.082       .  S
C286        C287   1.382       .  A
C286        C676   1.474       .  S
C287        H289   1.082       .  S
Cu290       N293   2.071       .  S
Cu291       N301   2.068   1_655  S
Cu292       N294   2.074       .  S
Cu292       N300   2.074       .  S
N293        N294   1.322   1_655  A
N293        C297   1.345       .  A
N294        C295   1.346       .  A
C295        C296   1.382       .  A
C295        H298   1.082       .  S
C296        C297   1.382   1_455  A
C297        H299   1.082       .  S
N300        N301   1.320       .  A
N300        C304   1.344       .  A
N301        C302   1.343       .  A
C302        C303   1.388       .  A
C302        H305   1.082       .  S
C303        C304   1.389       .  A
C303        C688   1.490       .  S
C304        H306   1.080       .  S
N307        N308   1.322       .  A
N307        C311   1.345       .  A
N307       Cu315   2.077       .  S
N308        C309   1.346       .  A
N308       Cu314   2.079       .  S
C309        C310   1.386       .  A
C309        H312   1.082       .  S
C310        C311   1.387       .  A
C310        C649   1.486       .  S
C311        H313   1.081       .  S
Cu314       N317   2.079       .  S
Cu315       N325   2.077       .  S
Cu316       N318   2.082       .  S
Cu316       N324   2.082       .  S
N317        N318   1.323       .  A
N317        C321   1.346       .  A
N318        C319   1.347       .  A
C319        C320   1.385       .  A
C319        H322   1.082       .  S
C320        C321   1.383       .  A
C321        H323   1.082       .  S
N324        N325   1.324       .  A
N324        C328   1.346       .  A
N325        C326   1.346       .  A
C326        C327   1.383   1_565  A
C326        H329   1.082       .  S
C327        C328   1.382   1_545  A
C327        C661   1.475       .  S
C328        H330   1.082   1_565  S
N331        N332   1.320       .  A
N331        C335   1.345       .  A
N331       Cu339   2.071   1_455  S
N332        C333   1.345       .  A
N332       Cu338   2.082       .  S
C333        C334   1.391       .  A
C333        H336   1.082       .  S
C334        C335   1.389       .  A
C334        C637   1.494       .  S
C335        H337   1.080       .  S
Cu338       N341   2.083       .  S
Cu339       N349   2.071       .  S
Cu340       N342   2.072       .  S
Cu340       N348   2.072       .  S
N341        N342   1.323   1_455  A
N341        C345   1.346       .  A
N342        C343   1.345       .  A
C343        C344   1.382   1_655  A
C343        H346   1.082       .  S
C344        C345   1.384       .  A
C344        C367   1.469       .  S
C345        H347   1.082       .  S
N348        N349   1.323       .  A
N348        C352   1.345       .  A
N349        C350   1.344       .  A
C350        C351   1.381       .  A
C350        H353   1.082       .  S
C351        C352   1.382       .  A
C351        C628   1.471       .  S
C352        H354   1.082       .  S
O355       Cu363   2.010       .  S
O355        C365   1.277       .  A
O356       Cu363   2.013   1_655  S
O356        C366   1.278       .  A
O357       Cu363   2.014   1_545  S
O357        C367   1.278       .  A
O358       Cu363   2.011       .  S
O358        C368   1.277       .  A
O359       Cu364   2.012       .  S
O359        C368   1.278       .  A
O360       Cu364   2.013       .  S
O360        C367   1.278   1_565  A
O361       Cu364   2.011   1_655  S
O361        C366   1.277       .  A
O362       Cu364   2.009       .  S
O362        C365   1.278       .  A
Cu363      Cu364   2.371       .  S
C365        C430   1.467       .  S
C366        C382   1.470       .  S
C368        C406   1.469       .  S
N369        N370   1.322       .  A
N369        C373   1.344       .  A
N369       Cu377   2.068       .  S
N370        C371   1.346       .  A
N370       Cu376   2.079       .  S
C371        C372   1.385       .  A
C371        H374   1.081       .  S
C372        C373   1.382       .  A
C372        C604   1.477       .  S
C373        H375   1.082       .  S
Cu376       N379   2.079       .  S
Cu377       N387   2.067       .  S
Cu378       N380   2.073       .  S
Cu378       N386   2.073       .  S
N379        N380   1.323       .  A
N379        C383   1.347       .  A
N380        C381   1.345       .  A
C381        C382   1.382       .  A
C381        H384   1.082       .  S
C382        C383   1.384       .  A
C383        H385   1.082       .  S
N386        N387   1.320       .  A
N386        C390   1.345       .  A
N387        C388   1.344       .  A
C388        C389   1.386       .  A
C388        H391   1.082       .  S
C389        C390   1.387       .  A
C389        C613   1.485   1_565  S
C390        H392   1.081   1_565  S
N393        N394   1.322       .  A
N393        C397   1.343       .  A
N393       Cu401   2.068   1_655  S
N394        C395   1.345       .  A
N394       Cu400   2.077       .  S
C395        C396   1.386       .  A
C395        H398   1.082       .  S
C396        C397   1.383       .  A
C396        C592   1.481       .  S
C397        H399   1.082       .  S
Cu400       N403   2.076       .  S
Cu401       N411   2.068       .  S
Cu402       N404   2.076       .  S
Cu402       N410   2.076       .  S
N403        N404   1.323   1_655  A
N403        C407   1.346       .  A
N404        C405   1.345       .  A
C405        C406   1.382       .  A
C405        H408   1.082       .  S
C406        C407   1.383   1_455  A
C407        H409   1.082       .  S
N410        N411   1.322       .  A
N410        C414   1.345       .  A
N411        C412   1.345       .  A
C412        C413   1.383       .  A
C412        H415   1.082       .  S
C413        C414   1.385       .  A
C413        C580   1.478       .  S
C414        H416   1.082       .  S
N417        N418   1.323       .  A
N417        C421   1.346       .  A
N417       Cu425   2.078       .  S
N418        C419   1.345       .  A
N418       Cu424   2.083       .  S
C419        C420   1.386       .  A
C419        H422   1.082       .  S
C420        C421   1.386       .  A
C420        C568   1.486       .  S
C421        H423   1.081       .  S
Cu424       N427   2.082       .  S
Cu425       N435   2.077       .  S
Cu426       N428   2.064       .  S
Cu426       N434   2.065       .  S
N427        N428   1.322       .  A
N427        C431   1.347       .  A
N428        C429   1.344       .  A
C429        C430   1.380       .  A
C429        H432   1.082       .  S
C430        C431   1.384       .  A
C431        H433   1.082       .  S
N434        N435   1.322       .  A
N434        C438   1.344       .  A
N435        C436   1.346       .  A
C436        C437   1.385       .  A
C436        H439   1.082       .  S
C437        C438   1.381       .  A
C437        C553   1.476   1_565  S
C438        H440   1.082   1_565  S
O441       Cu449   2.003   1_554  S
O441        C451   1.276       .  A
O442       Cu449   2.001       .  S
O442        C452   1.276       .  A
O443       Cu449   2.018       .  S
O443        C453   1.280       .  A
O444       Cu449   2.020   1_554  S
O444        C454   1.279       .  A
O445       Cu450   2.013   1_554  S
O445        C454   1.277       .  A
O446       Cu450   2.011       .  S
O446        C453   1.278       .  A
O447       Cu450   2.015       .  S
O447        C452   1.279       .  A
O448       Cu450   2.011   1_554  S
O448        C451   1.278       .  A
Cu449      Cu450   2.374       .  S
C451        C841   1.468       .  S
C452        C685   1.474       .  S
C453        C796   1.492       .  S
C454        C640   1.480       .  S
O455       Cu463   2.003   1_556  S
O455        C465   1.278       .  A
O456       Cu463   2.006       .  S
O456        C466   1.276       .  A
O457       Cu463   2.007   1_556  S
O457        C467   1.277       .  A
O458       Cu463   2.007       .  S
O458        C468   1.279       .  A
O459       Cu464   2.008       .  S
O459        C468   1.276       .  A
O460       Cu464   2.013   1_556  S
O460        C467   1.279       .  A
O461       Cu464   2.011       .  S
O461        C466   1.277       .  A
O462       Cu464   2.010   1_556  S
O462        C465   1.277       .  A
Cu463      Cu464   2.366       .  S
C465        C769   1.492       .  S
C466        C616   1.469       .  S
C467        C664   1.486       .  S
C468        C913   1.493       .  S
O469       Cu477   2.011       .  S
O469        C479   1.278       .  A
O470       Cu477   2.013   1_556  S
O470        C480   1.278       .  A
O471       Cu477   2.012       .  S
O471        C481   1.277       .  A
O472       Cu477   2.009   1_556  S
O472        C482   1.278       .  A
O473       Cu478   2.011   1_556  S
O473        C482   1.278       .  A
O474       Cu478   2.007       .  S
O474        C481   1.276       .  A
O475       Cu478   2.015   1_556  S
O475        C480   1.278       .  A
O476       Cu478   2.015       .  S
O476        C479   1.279       .  A
Cu477      Cu478   2.373       .  S
C479        C892   1.487       .  S
C480        C736   1.477       .  S
C481        C589   1.468       .  S
C482        C748   1.484       .  S
O483       Cu491   2.013   1_554  S
O483        C493   1.277       .  A
O484       Cu491   2.011       .  S
O484        C494   1.277       .  A
O485       Cu491   2.020   1_554  S
O485        C495   1.280       .  A
O486       Cu491   2.015       .  S
O486        C496   1.278       .  A
O487       Cu492   2.011       .  S
O487        C496   1.279       .  A
O488       Cu492   2.009   1_554  S
O488        C495   1.276       .  A
O489       Cu492   2.011       .  S
O489        C494   1.278       .  A
O490       Cu492   2.006   1_554  S
O490        C493   1.278       .  A
Cu491      Cu492   2.364       .  S
C493        C868   1.494       .  S
C494        C712   1.475       .  S
C495        C565   1.497       .  S
C496        C820   1.491       .  S
O497       Cu505   2.008       .  S
O497        C507   1.279       .  A
O498       Cu505   2.020       .  S
O498        C508   1.278       .  A
O499       Cu505   2.010       .  S
O499        C509   1.276       .  A
O500       Cu505   2.008       .  S
O500        C510   1.277       .  A
O501       Cu506   2.012       .  S
O501        C510   1.277       .  A
O502       Cu506   2.004       .  S
O502        C509   1.278       .  A
O503       Cu506   2.007       .  S
O503        C508   1.279       .  A
O504       Cu506   2.012       .  S
O504        C507   1.277       .  A
Cu505      Cu506   2.366       .  S
C507        C577   1.492       .  S
C508        C808   1.493       .  S
C509        C856   1.493       .  S
C510        C721   1.471       .  S
O511       Cu519   2.019       .  S
O511        C521   1.279       .  A
O512       Cu519   2.018       .  S
O512        C522   1.279       .  A
O513       Cu519   2.000       .  S
O513        C523   1.276       .  A
O514       Cu519   2.003       .  S
O514        C524   1.276       .  A
O515       Cu520   2.011       .  S
O515        C524   1.277       .  A
O516       Cu520   2.006       .  S
O516        C523   1.277       .  A
O517       Cu520   1.995       .  S
O517        C522   1.277       .  A
O518       Cu520   1.995       .  S
O518        C521   1.277       .  A
Cu519      Cu520   2.373       .  S
C521        C556   1.489       .  S
C522        C784   1.486       .  S
C523        C928   1.464       .  S
C524        C700   1.467       .  S
O525       Cu533   2.008       .  S
O525        C535   1.278       .  A
O526       Cu533   2.010       .  S
O526        C536   1.279       .  A
O527       Cu533   2.002       .  S
O527        C537   1.278       .  A
O528       Cu533   2.006       .  S
O528        C538   1.276       .  A
O529       Cu534   2.004       .  S
O529        C538   1.277       .  A
O530       Cu534   2.011       .  S
O530        C537   1.277       .  A
O531       Cu534   2.003       .  S
O531        C536   1.277       .  A
O532       Cu534   2.005       .  S
O532        C535   1.278       .  A
Cu533      Cu534   2.369       .  S
C535        C757   1.484       .  S
C536        C625   1.487       .  S
C537        C673   1.491       .  S
C538        C904   1.465       .  S
O539       Cu547   2.009       .  S
O539        C549   1.279       .  A
O540       Cu547   2.011       .  S
O540        C550   1.277       .  A
O541       Cu547   2.006       .  S
O541        C551   1.279       .  A
O542       Cu547   2.004       .  S
O542        C552   1.278       .  A
O543       Cu548   2.007       .  S
O543        C552   1.277       .  A
O544       Cu548   2.005       .  S
O544        C551   1.276       .  A
O545       Cu548   2.009       .  S
O545        C550   1.277       .  A
O546       Cu548   2.007       .  S
O546        C549   1.277       .  A
Cu547      Cu548   2.368       .  S
C549        C880   1.488       .  S
C550        C652   1.469       .  S
C551        C601   1.492       .  S
C552        C832   1.486       .  S
C553        C554   1.402       .  A
C553        C558   1.410       .  A
C554        C555   1.400       .  A
C554        H563   1.084       .  S
C555        C556   1.418       .  A
C555        S559   1.802       .  S
C556        C557   1.409       .  A
C557        C558   1.397       .  A
C557        H564   1.083       .  S
C558        S560   1.804   1_545  S
S559        H562   1.407       .  S
S560        H561   1.406       .  S
C565        C566   1.409       .  A
C565        C570   1.422       .  A
C566        C567   1.402       .  A
C566        H575   1.083       .  S
C567        C568   1.414       .  A
C567        S571   1.803       .  S
C568        C569   1.402       .  A
C569        C570   1.400       .  A
C569        H576   1.084       .  S
C570        S572   1.801       .  S
S571        H574   1.407       .  S
S572        H573   1.405       .  S
C577        C578   1.408       .  A
C577        C582   1.420       .  A
C578        C579   1.398       .  A
C578        H587   1.083       .  S
C579        C580   1.411       .  A
C579        S583   1.803       .  S
C580        C581   1.402       .  A
C581        C582   1.402       .  A
C581        H588   1.084       .  S
C582        S584   1.802       .  S
S583        H586   1.407       .  S
S584        H585   1.408       .  S
C589        C590   1.400       .  A
C589        C594   1.410       .  A
C590        C591   1.399       .  A
C590        H599   1.084       .  S
C591        C592   1.416       .  A
C591        S595   1.803       .  S
C592        C593   1.404       .  A
C593        C594   1.398       .  A
C593        H600   1.084       .  S
C594        S596   1.801       .  S
S595        H598   1.407       .  S
S596        H597   1.405       .  S
C601        C602   1.409       .  A
C601        C606   1.420       .  A
C602        C603   1.399       .  A
C602        H611   1.082       .  S
C603        C604   1.410       .  A
C603        S607   1.804       .  S
C604        C605   1.401       .  A
C605        C606   1.400       .  A
C605        H612   1.081       .  S
C606        S608   1.801       .  S
S607        H610   1.406       .  S
S608        H609   1.408       .  S
C613        C614   1.407       .  A
C613        C618   1.417       .  A
C614        C615   1.399       .  A
C614        H623   1.083       .  S
C615        C616   1.409       .  A
C615        S619   1.805       .  S
C616        C617   1.400       .  A
C617        C618   1.399       .  A
C617        H624   1.084       .  S
C618        S620   1.802   1_545  S
S619        H622   1.406       .  S
S620        H621   1.407       .  S
C625        C626   1.408       .  A
C625        C630   1.419       .  A
C626        C627   1.400       .  A
C626        H635   1.084       .  S
C627        C628   1.410       .  A
C627        S631   1.804       .  S
C628        C629   1.399       .  A
C629        C630   1.397       .  A
C629        H636   1.084       .  S
C630        S632   1.801       .  S
S631        H634   1.406       .  S
S632        H633   1.406       .  S
C637        C638   1.407       .  A
C637        C642   1.420       .  A
C638        C639   1.398       .  A
C638        H647   1.083       .  S
C639        C640   1.409       .  A
C639        S643   1.800       .  S
C640        C641   1.401       .  A
C641        C642   1.407       .  A
C641        H648   1.081       .  S
C642        S644   1.808       .  S
S643        H646   1.405       .  S
S644        H645   1.407       .  S
C649        C650   1.407       .  A
C649        C654   1.417       .  A
C650        C651   1.400       .  A
C650        H659   1.083       .  S
C651        C652   1.410       .  A
C651        S655   1.804       .  S
C652        C653   1.400       .  A
C653        C654   1.400       .  A
C653        H660   1.084       .  S
C654        S656   1.802       .  S
S655        H658   1.405       .  S
S656        H657   1.407       .  S
C661        C662   1.401       .  A
C661        C666   1.411       .  A
C662        C663   1.400       .  A
C662        H671   1.084       .  S
C663        C664   1.418       .  A
C663        S667   1.803       .  S
C664        C665   1.406       .  A
C665        C666   1.400       .  A
C665        H672   1.084       .  S
C666        S668   1.804   1_545  S
S667        H670   1.408       .  S
S668        H669   1.406       .  S
C673        C674   1.409       .  A
C673        C678   1.420       .  A
C674        C675   1.397       .  A
C674        H683   1.083       .  S
C675        C676   1.410       .  A
C675        S679   1.804       .  S
C676        C677   1.401       .  A
C677        C678   1.399       .  A
C677        H684   1.084       .  S
C678        S680   1.801       .  S
S679        H682   1.407       .  S
S680        H681   1.405       .  S
C685        C686   1.400       .  A
C685        C690   1.410       .  A
C686        C687   1.398       .  A
C686        H695   1.081       .  S
C687        C688   1.418       .  A
C687        S691   1.802       .  S
C688        C689   1.409       .  A
C689        C690   1.400       .  A
C689        H696   1.082       .  S
C690        S692   1.804       .  S
S691        H694   1.407       .  S
S692        H693   1.407       .  S
C697        C698   1.407       .  A
C697        C702   1.417       .  A
C698        C699   1.399       .  A
C698        H707   1.083       .  S
C699        C700   1.408       .  A
C699        S703   1.805       .  S
C700        C701   1.400       .  A
C701        C702   1.400       .  A
C701        H708   1.084       .  S
C702        S704   1.803       .  S
S703        H706   1.406       .  S
S704        H705   1.407       .  S
C709        C710   1.406       .  A
C709        C714   1.418       .  A
C710        C711   1.399       .  A
C710        H719   1.083       .  S
C711        C712   1.410       .  A
C711        S715   1.802       .  S
C712        C713   1.401       .  A
C713        C714   1.401       .  A
C713        H720   1.084       .  S
C714        S716   1.802       .  S
S715        H718   1.407       .  S
S716        H717   1.407       .  S
C721        C722   1.399       .  A
C721        C726   1.410       .  A
C722        C723   1.401       .  A
C722        H731   1.084       .  S
C723        C724   1.419       .  A
C723        S727   1.802       .  S
C724        C725   1.408       .  A
C725        C726   1.400       .  A
C725        H732   1.083       .  S
C726        S728   1.804       .  S
S727        H730   1.407       .  S
S728        H729   1.405       .  S
C733        C734   1.409       .  A
C733        C738   1.422       .  A
C734        C735   1.402       .  A
C734        H743   1.082       .  S
C735        C736   1.410       .  A
C735        S739   1.804       .  S
C736        C737   1.399       .  A
C737        C738   1.400       .  A
C737        H744   1.082       .  S
C738        S740   1.802       .  S
S739        H742   1.405       .  S
S740        H741   1.407       .  S
C745        C746   1.402       .  A
C745        C750   1.411       .  A
C746        C747   1.400       .  A
C746        H755   1.084       .  S
C747        C748   1.417       .  A
C747        S751   1.803       .  S
C748        C749   1.407       .  A
C749        C750   1.400       .  A
C749        H756   1.084       .  S
C750        S752   1.803       .  S
S751        H754   1.407       .  S
S752        H753   1.407       .  S
C757        C758   1.405       .  A
C757        C762   1.415       .  A
C758        C759   1.400       .  A
C758        H767   1.084       .  S
C759        C760   1.416       .  A
C759        S763   1.802       .  S
C760        C761   1.406       .  A
C761        C762   1.399       .  A
C761        H768   1.083       .  S
C762        S764   1.803       .  S
S763        H766   1.407       .  S
S764        H765   1.407       .  S
C769        C770   1.408       .  A
C769        C774   1.421       .  A
C770        C771   1.397       .  A
C770        H779   1.083       .  S
C771        C772   1.411       .  A
C771        S775   1.803       .  S
C772        C773   1.402       .  A
C773        C774   1.401       .  A
C773        H780   1.084       .  S
C774        S776   1.802       .  S
S775        H778   1.406       .  S
S776        H777   1.408       .  S
C781        C782   1.402       .  A
C781        C786   1.409       .  A
C782        C783   1.401       .  A
C782        H791   1.084       .  S
C783        C784   1.417       .  A
C783        S787   1.802       .  S
C784        C785   1.408       .  A
C785        C786   1.397       .  A
C785        H792   1.084       .  S
C786        S788   1.804       .  S
S787        H790   1.408       .  S
S788        H789   1.406       .  S
C793        C794   1.402       .  A
C793        C798   1.413       .  A
C794        C795   1.401       .  A
C794        H803   1.084       .  S
C795        C796   1.419       .  A
C795        S799   1.802       .  S
C796        C797   1.407       .  A
C797        C798   1.401       .  A
C797        H804   1.083       .  S
C798        S800   1.803       .  S
S799        H802   1.408       .  S
S800        H801   1.406       .  S
C805        C806   1.406       .  A
C805        C810   1.416       .  A
C806        C807   1.403       .  A
C806        H815   1.083       .  S
C807        C808   1.419       .  A
C807        S811   1.802       .  S
C808        C809   1.406       .  A
C809        C810   1.399       .  A
C809        H816   1.083       .  S
C810        S812   1.802       .  S
S811        H814   1.408       .  S
S812        H813   1.407       .  S
C817        C818   1.401       .  A
C817        C822   1.411       .  A
C818        C819   1.402       .  A
C818        H827   1.084       .  S
C819        C820   1.419       .  A
C819        S823   1.802       .  S
C820        C821   1.408       .  A
C821        C822   1.400       .  A
C821        H828   1.084       .  S
C822        S824   1.804       .  S
S823        H826   1.407       .  S
S824        H825   1.406       .  S
C829        C830   1.401       .  A
C829        C834   1.410       .  A
C830        C831   1.400       .  A
C830        H839   1.084       .  S
C831        C832   1.418       .  A
C831        S835   1.802       .  S
C832        C833   1.407       .  A
C833        C834   1.398       .  A
C833        H840   1.083       .  S
C834        S836   1.804       .  S
S835        H838   1.408       .  S
S836        H837   1.406       .  S
C841        C842   1.400       .  A
C841        C846   1.408       .  A
C842        C843   1.400       .  A
C842        H851   1.084       .  S
C843        C844   1.417       .  A
C843        S847   1.802       .  S
C844        C845   1.406       .  A
C845        C846   1.397       .  A
C845        H852   1.083       .  S
C846        S848   1.801       .  S
S847        H850   1.407       .  S
S848        H849   1.406       .  S
C853        C854   1.401       .  A
C853        C858   1.411       .  A
C854        C855   1.399       .  A
C854        H863   1.084       .  S
C855        C856   1.421       .  A
C855        S859   1.800       .  S
C856        C857   1.410       .  A
C857        C858   1.398       .  A
C857        H864   1.083       .  S
C858        S860   1.804       .  S
S859        H862   1.407       .  S
S860        H861   1.407       .  S
C865        C866   1.402       .  A
C865        C870   1.412       .  A
C866        C867   1.400       .  A
C866        H875   1.084       .  S
C867        C868   1.421       .  A
C867        S871   1.801       .  S
C868        C869   1.410       .  A
C869        C870   1.400       .  A
C869        H876   1.083       .  S
C870        S872   1.803       .  S
S871        H874   1.407       .  S
S872        H873   1.407       .  S
C877        C878   1.401       .  A
C877        C882   1.411       .  A
C878        C879   1.400       .  A
C878        H887   1.084       .  S
C879        C880   1.419       .  A
C879        S883   1.802       .  S
C880        C881   1.408       .  A
C881        C882   1.399       .  A
C881        H888   1.084       .  S
C882        S884   1.804       .  S
S883        H886   1.408       .  S
S884        H885   1.406       .  S
C889        C890   1.401       .  A
C889        C894   1.411       .  A
C890        C891   1.401       .  A
C890        H899   1.084       .  S
C891        C892   1.418       .  A
C891        S895   1.803       .  S
C892        C893   1.407       .  A
C893        C894   1.400       .  A
C893        H900   1.084       .  S
C894        S896   1.804       .  S
S895        H898   1.408       .  S
S896        H897   1.406       .  S
C901        C902   1.406       .  A
C901        C906   1.416       .  A
C902        C903   1.398       .  A
C902        H911   1.084       .  S
C903        C904   1.408       .  A
C903        S907   1.804       .  S
C904        C905   1.400       .  A
C905        C906   1.399       .  A
C905        H912   1.084       .  S
C906        S908   1.803       .  S
S907        H910   1.406       .  S
S908        H909   1.407       .  S
C913        C914   1.408       .  A
C913        C918   1.420       .  A
C914        C915   1.399       .  A
C914        H923   1.083       .  S
C915        C916   1.413       .  A
C915        S919   1.803       .  S
C916        C917   1.403       .  A
C917        C918   1.400       .  A
C917        H924   1.084       .  S
C918        S920   1.801       .  S
S919        H922   1.407       .  S
S920        H921   1.408       .  S
C925        C926   1.407       .  A
C925        C930   1.417       .  A
C926        C927   1.399       .  A
C926        H935   1.083       .  S
C927        C928   1.408       .  A
C927        S931   1.805       .  S
C928        C929   1.399       .  A
C929        C930   1.397       .  A
C929        H936   1.084       .  S
C930        S932   1.803       .  S
S931        H934   1.405       .  S
S932        H933   1.407       .  S
