geometry optimzed in LAMMPS
_audit_creation_date              2020-11-30 
_audit_creation_method            'lammps2cif' 
_symmetry_space_group_name_H-M    'P1' 
_symmetry_Int_Tables_number       1 
_symmetry_cell_setting            triclinic 
loop_ 
_symmetry_equiv_pos_as_xyz 
  x,y,z 
_cell_length_a                    58.1404958 
_cell_length_b                    58.46497505219459 
_cell_length_c                    29.070136420553336 
_cell_angle_alpha                 89.769394196128 
_cell_angle_beta                  90.05376326113429 
_cell_angle_gamma                 123.70411920905569 
loop_ 
_atom_site_label 
_atom_site_type_symbol 
_atom_site_fract_x 
_atom_site_fract_y 
_atom_site_fract_z 
_atom_site_charge 
C1          C  0.01049677  0.41983984  0.64259275    -0.02600
In2        In  0.67119401  0.22731334  0.86557618     1.36900
C3          C  0.67214890  0.22617951  0.95684196     0.77400
O4          O  0.71737707  0.25229819  0.86806884    -0.61000
O5          O  0.69838067  0.26929843  0.83227936    -0.51900
C6          C  0.66822955  0.18729412  0.81557697     0.70100
O7          O  0.67909235  0.19438783  0.85468786    -0.46800
C8          C  0.62462289  0.22593432  0.85995389     0.74800
O9          O  0.66286554  0.20487536  0.93287911    -0.58600
O10         O  0.64648131  0.24383927  0.83929768    -0.48700
O11         O  0.68106911  0.24797147  0.93424469    -0.55100
C12         C  0.72044521  0.27274487  0.84731092     0.85000
O13         O  0.65913910  0.20120987  0.80108085    -0.57000
O14         O  0.62617251  0.20800792  0.88117706    -0.60300
In15       In  0.79340989  0.34828853  0.86174065     1.36900
C16         C  0.79485715  0.34739883  0.95282495     0.77400
O17         O  0.81527542  0.39331386  0.87554070    -0.61000
O18         O  0.77888528  0.37460435  0.83469277    -0.51900
C19         C  0.83342306  0.35211600  0.81029759     0.70100
O20         O  0.82591638  0.33964344  0.84821419    -0.46800
C21         C  0.74721749  0.29923867  0.84627830     0.74800
O22         O  0.81515012  0.35283136  0.92825125    -0.58600
O23         O  0.75071235  0.32102956  0.83021276    -0.48700
O24         O  0.77407080  0.34299985  0.93093735    -0.55100
C25         C  0.79815437  0.39614032  0.85407142     0.85000
O26         O  0.81959399  0.36165833  0.79763766    -0.57000
O27         O  0.76798744  0.30241050  0.86617549    -0.60300
In28       In  0.47582426  0.67494145  0.87099283     1.36900
C29         C  0.48004123  0.72249671  0.85864584     0.77400
O30         O  0.43478994  0.64615135  0.83507905    -0.61000
O31         O  0.44851893  0.62946434  0.88422085    -0.51900
C32         C  0.51508299  0.67437346  0.82311868     0.70100
O33         O  0.49673654  0.67640526  0.80418050    -0.46800
C34         C  0.47565599  0.67563647  0.96231582     0.74800
O35         O  0.49947009  0.72122359  0.87448628    -0.58600
O36         O  0.45631765  0.67334456  0.93868010    -0.48700
O37         O  0.45933898  0.69979375  0.84557675    -0.55100
C38         C  0.42949157  0.62528659  0.85761199     0.85000
O39         O  0.51340183  0.67309860  0.86628084    -0.57000
O40         O  0.49525891  0.67804619  0.93936704    -0.60300
In41       In  0.47782801  0.79117357  0.87844455     1.36900
C42         C  0.47964164  0.79027414  0.96944050     0.77400
O43         O  0.45353392  0.80941008  0.89566536    -0.61000
O44         O  0.43561993  0.77635264  0.84842762    -0.51900
C45         C  0.51538206  0.83409149  0.82835180     0.70100
O46         O  0.52003016  0.83026716  0.86896428    -0.46800
C47         C  0.48034826  0.74778933  0.86014006     0.74800
O48         O  0.49752789  0.81067494  0.94600188    -0.58600
O49         O  0.45949673  0.74830396  0.85066416    -0.48700
O50         O  0.46097437  0.77032114  0.94642371    -0.55100
C51         C  0.43295566  0.79310521  0.87115836     0.85000
O52         O  0.49231660  0.81513879  0.81258068    -0.57000
O53         O  0.50062102  0.77010651  0.87528885    -0.60300
C54         C  0.60473822  0.01021978  0.65664060    -0.02600
C55         C  0.61430811  0.60135871  0.65830494    -0.02600
In56       In  0.23906561  0.66571697  0.87833541     1.36900
C57         C  0.24165861  0.66848495  0.96949384     0.77400
O58         O  0.21865183  0.62047947  0.88972991    -0.61000
O59         O  0.24997369  0.63952072  0.83882192    -0.51900
C60         C  0.19754405  0.66355880  0.83459641     0.70100
O61         O  0.19687859  0.65771866  0.87643811    -0.46800
C62         C  0.28526880  0.71498511  0.86539004     0.74800
O63         O  0.22432533  0.67028674  0.94667374    -0.58600
O64         O  0.28321883  0.69318516  0.85377964    -0.48700
O65         O  0.25785022  0.66535210  0.94581355    -0.55100
C66         C  0.23338976  0.61796505  0.86126364     0.85000
O67         O  0.21945929  0.66978533  0.81413241    -0.57000
O68         O  0.26327732  0.71166716  0.88016791    -0.60300
In69       In  0.35970618  0.78858206  0.88411521     1.36900
C70         C  0.36058581  0.78920477  0.97549855     0.77400
O71         O  0.31343129  0.76264265  0.88288878    -0.61000
O72         O  0.33435624  0.74538825  0.85565789    -0.51900
C73         C  0.36054859  0.82844263  0.83660071     0.70100
O74         O  0.34643085  0.81785944  0.87252811    -0.46800
C75         C  0.40740105  0.79271115  0.87210626     0.74800
O76         O  0.36782385  0.81032201  0.95196192    -0.58600
O77         O  0.38586476  0.77575372  0.84977332    -0.48700
O78         O  0.35276462  0.76792664  0.95245784    -0.55100
C79         C  0.31159720  0.74180935  0.86656737     0.85000
O80         O  0.37320505  0.81768882  0.82389610    -0.57000
O81         O  0.40489836  0.80848167  0.89794381    -0.60300
C82         C  0.42131385  0.99789604  0.66729878    -0.02600
In83       In  0.35252785  0.55205207  0.86358460     1.36900
C84         C  0.35001982  0.54967946  0.95476106     0.77400
O85         O  0.39739055  0.57916384  0.88248713    -0.61000
O86         O  0.38258682  0.59406820  0.83180880    -0.51900
C87         C  0.35776353  0.51608578  0.81563973     0.70100
O88         O  0.34979229  0.51236414  0.85678020    -0.46800
C89         C  0.30446655  0.54700111  0.84596655     0.74800
O90         O  0.35119215  0.53244882  0.93085899    -0.58600
O91         O  0.32766696  0.56853139  0.83706522    -0.48700
O92         O  0.34968056  0.56791187  0.93214579    -0.55100
C93         C  0.40265463  0.59870848  0.85634686     0.85000
O94         O  0.36150550  0.53766821  0.79791417    -0.57000
O95         O  0.30567632  0.52727484  0.85990105    -0.60300
In96       In  0.23409311  0.54768635  0.86253637     1.36900
C97         C  0.23391795  0.54551230  0.95400816     0.77400
O98         O  0.25590505  0.52546936  0.85963638    -0.61000
O99         O  0.27774617  0.56659777  0.83590516    -0.51900
C100        C  0.19072539  0.51093865  0.81150175     0.70100
O101        O  0.19522045  0.50591613  0.85142155    -0.46800
C102        C  0.23252594  0.59243368  0.85794000     0.74800
O103        O  0.21343019  0.52816650  0.93021137    -0.58600
O104        O  0.24896299  0.58990549  0.83358055    -0.48700
O105        O  0.25457007  0.56349722  0.93110637    -0.55100
C106        C  0.27855203  0.54602462  0.84557967     0.85000
O107        O  0.20951379  0.53430763  0.79635895    -0.57000
O108        O  0.21624210  0.57174820  0.88226930    -0.60300
In109      In  0.55816832  0.34535995  0.86396075     1.36900
C110        C  0.55314888  0.29752297  0.85150116     0.77400
O111        O  0.60089647  0.37367627  0.83217331    -0.61000
O112        O  0.58595174  0.39107323  0.87667014    -0.51900
C113        C  0.51980934  0.34591104  0.81291918     0.70100
O114        O  0.53430277  0.33774357  0.79740702    -0.46800
C115        C  0.55608584  0.34166113  0.95519974     0.74800
O116        O  0.53447765  0.29916562  0.86996947    -0.58600
O117        O  0.57503559  0.34314681  0.93172029    -0.48700
O118        O  0.57345542  0.32003543  0.83628166    -0.55100
C119        C  0.60589030  0.39479523  0.85314362     0.85000
O120        O  0.52506785  0.35362369  0.85411769    -0.57000
O121        O  0.53772936  0.34169349  0.93213055    -0.60300
In122      In  0.55479770  0.22795558  0.86775415     1.36900
C123        C  0.55282141  0.22626646  0.95908391     0.77400
O124        O  0.57854578  0.20908367  0.88411066    -0.61000
O125        O  0.59771426  0.24439389  0.84071042    -0.51900
C126        C  0.52024224  0.18566789  0.81308068     0.70100
O127        O  0.51302688  0.18941317  0.85165202    -0.46800
C128        C  0.55251224  0.27197030  0.85201684     0.74800
O129        O  0.53345377  0.20783806  0.93468173    -0.58600
O130        O  0.57280571  0.27105568  0.84009642    -0.48700
O131        O  0.57281790  0.24564278  0.93690309    -0.55100
C132        C  0.59960697  0.22637194  0.86111519     0.85000
O133        O  0.54433602  0.20457396  0.80104660    -0.57000
O134        O  0.53253958  0.24973911  0.86828285    -0.60300
C135        C  0.42633866  0.41584989  0.63760730    -0.02600
In136      In  0.80073407  0.46795772  0.86597285     1.36900
C137        C  0.79919050  0.46760855  0.95717658     0.77400
O138        O  0.77888010  0.48970422  0.87235536    -0.61000
O139        O  0.75902812  0.45259156  0.83448939    -0.51900
C140        C  0.84510569  0.50626182  0.81786761     0.70100
O141        O  0.84479609  0.50385301  0.86088821    -0.46800
C142        C  0.79994214  0.42220052  0.85454784     0.74800
O143        O  0.81607793  0.48891173  0.93447593    -0.58600
O144        O  0.78242571  0.42549557  0.83569435    -0.48700
O145        O  0.78268217  0.44687982  0.93332778    -0.55100
C146        C  0.75752939  0.47155896  0.85125553     0.85000
O147        O  0.82221799  0.48922768  0.79913117    -0.57000
O148        O  0.81853188  0.44273032  0.87655654    -0.60300
In149      In  0.68424763  0.46636545  0.86549209     1.36900
C150        C  0.73206369  0.47115507  0.85081656     0.77400
O151        O  0.68511764  0.48325220  0.93519027    -0.61000
O152        O  0.68559529  0.44724930  0.93192075    -0.51900
C153        C  0.68593124  0.50712110  0.81915115     0.70100
O154        O  0.68319437  0.48663191  0.79905815    -0.46800
C155        C  0.63326753  0.42101822  0.85370427     0.74800
O156        O  0.73056652  0.48954399  0.86995273    -0.58600
O157        O  0.63815506  0.44111300  0.87774935    -0.48700
O158        O  0.70941436  0.45127285  0.83545860    -0.55100
C159        C  0.68575369  0.46490779  0.95684768     0.85000
O160        O  0.68830439  0.50662919  0.86206843    -0.57000
O161        O  0.65415643  0.42465766  0.83316525    -0.60300
C162        C  0.03070591  0.60375190  0.66198641    -0.02600
In163      In  0.67135083  0.22500112  0.09838776     1.36900
C164        C  0.67216053  0.22572136  0.00706600     0.77400
O165        O  0.62635673  0.20573774  0.08413240    -0.61000
O166        O  0.64475716  0.23735882  0.13378935    -0.51900
C167        C  0.67020583  0.18514135  0.14607197     0.70100
O168        O  0.67064574  0.18665864  0.10291662    -0.46800
C169        C  0.72172763  0.27008189  0.11047337     0.74800
O170        O  0.66389834  0.20416534  0.03004401    -0.58600
O171        O  0.70010723  0.26861426  0.12256698    -0.48700
O172        O  0.68009915  0.24688317  0.03066013    -0.55100
C173        C  0.62349140  0.22089016  0.11065050     0.85000
O174        O  0.67027541  0.20440044  0.16569993    -0.57000
O175        O  0.71770896  0.24800599  0.09521256    -0.60300
In176      In  0.79589697  0.34471368  0.09418848     1.36900
C177        C  0.79527825  0.34619337  0.00295071     0.77400
O178        O  0.76962016  0.29844567  0.09021270    -0.61000
O179        O  0.75304870  0.31827454  0.12416008    -0.51900
C180        C  0.83584258  0.34621523  0.14345095     0.70100
O181        O  0.83096834  0.33892971  0.10199864    -0.46800
C182        C  0.80082605  0.39246895  0.10555413     0.74800
O183        O  0.81642109  0.35190539  0.02528973    -0.58600
O184        O  0.78284033  0.37093390  0.12669805    -0.48700
O185        O  0.77443664  0.33938953  0.02710970    -0.55100
C186        C  0.74900535  0.29607618  0.10953252     0.85000
O187        O  0.81965594  0.35202472  0.16008418    -0.57000
O188        O  0.81719584  0.38994314  0.08125644    -0.60300
C189        C  0.59474687  0.58306790  0.31976715    -0.02600
In190      In  0.47275215  0.67079568  0.10359274     1.36900
C191        C  0.47503972  0.67475193  0.01253680     0.77400
O192        O  0.44560691  0.62649563  0.08274733    -0.61000
O193        O  0.43098013  0.64012762  0.13572206    -0.51900
C194        C  0.50939524  0.66671290  0.15255640     0.70100
O195        O  0.51233303  0.67313791  0.11061380    -0.46800
C196        C  0.47822027  0.71832450  0.12205291     0.74800
O197        O  0.49262286  0.67358261  0.03591654    -0.58600
O198        O  0.45622626  0.69531919  0.12990595    -0.48700
O199        O  0.45650140  0.67435416  0.03566806    -0.55100
C200        C  0.42614551  0.62071285  0.10969169     0.85000
O201        O  0.48797258  0.66346957  0.17032654    -0.57000
O202        O  0.49799000  0.71707155  0.10823306    -0.60300
In203      In  0.47966008  0.78940014  0.11084311     1.36900
C204        C  0.48009452  0.78989701  0.01959387     0.77400
O205        O  0.50108766  0.76693172  0.11191006    -0.61000
O206        O  0.45923703  0.74522062  0.13315670    -0.51900
C207        C  0.51912831  0.83146955  0.16055802     0.70100
O208        O  0.52188429  0.82817555  0.11865045    -0.46800
C209        C  0.43571831  0.79210522  0.12259443     0.74800
O210        O  0.49859220  0.80977240  0.04298052    -0.58600
O211        O  0.43907856  0.77581857  0.14555936    -0.48700
O212        O  0.46163055  0.76976040  0.04274015    -0.55100
C213        C  0.47981725  0.74425585  0.12386816     0.85000
O214        O  0.49667921  0.81214223  0.17786612    -0.57000
O215        O  0.45539255  0.80785790  0.09593137    -0.60300
C216        C  0.60929334  0.01415084  0.31871386    -0.02600
C217        C  0.00955665  0.40831889  0.32488509    -0.02600
In218      In  0.80053439  0.46285524  0.09822495     1.36900
C219        C  0.79922042  0.46648415  0.00735628     0.77400
O220        O  0.81777478  0.43799052  0.08022755    -0.61000
O221        O  0.78554300  0.42129507  0.12978904    -0.51900
C222        C  0.84565199  0.49784105  0.14762177     0.70100
O223        O  0.84463130  0.49871206  0.10444719    -0.46800
C224        C  0.75614116  0.46445300  0.11503730     0.74800
O225        O  0.81549111  0.48696503  0.03196545    -0.58600
O226        O  0.75611426  0.44306541  0.12055701    -0.48700
O227        O  0.78339288  0.44449965  0.02918435    -0.55100
C228        C  0.80168430  0.41802921  0.10606502     0.85000
O229        O  0.82280524  0.48000106  0.16593137    -0.57000
O230        O  0.77945763  0.48562566  0.10521711    -0.60300
In231      In  0.68329892  0.46052661  0.09841126     1.36900
C232        C  0.68595113  0.46384143  0.00709719     0.77400
O233        O  0.72999704  0.48444536  0.10306886    -0.61000
O234        O  0.70708101  0.44238041  0.12172074    -0.51900
C235        C  0.67999622  0.49682779  0.14905753     0.70100
O236        O  0.68460322  0.49930187  0.10650127    -0.46800
C237        C  0.63253004  0.41484312  0.10645774     0.74800
O238        O  0.68649690  0.48174892  0.03187662    -0.58600
O239        O  0.65269092  0.41869483  0.12974899    -0.48700
O240        O  0.68485707  0.44460416  0.02892387    -0.55100
C241        C  0.73055434  0.46399255  0.11477186     0.85000
O242        O  0.67836509  0.47615849  0.16655079    -0.57000
O243        O  0.63802454  0.43471895  0.08101034    -0.60300
C244        C  0.01923705  0.57738611  0.33682297    -0.02600
In245      In  0.34959873  0.54793614  0.09607603     1.36900
C246        C  0.30206187  0.54357168  0.11130587     0.77400
O247        O  0.37872812  0.58847484  0.13175818    -0.61000
O248        O  0.39494554  0.57551165  0.08028186    -0.51900
C249        C  0.34989721  0.50866882  0.14310832     0.70100
O250        O  0.35810766  0.53179016  0.16022868    -0.46800
C251        C  0.34963729  0.54888425  0.00492438     0.74800
O252        O  0.30305688  0.52423712  0.09504952    -0.58600
O253        O  0.34668043  0.56501498  0.02878058    -0.48700
O254        O  0.32508761  0.56418878  0.12365300    -0.55100
C255        C  0.39941560  0.59405753  0.10802265     0.85000
O256        O  0.34052153  0.50549564  0.10301944    -0.57000
O257        O  0.35267103  0.53231041  0.02757970    -0.60300
In258      In  0.23313933  0.54633924  0.09599780     1.36900
C259        C  0.23364552  0.54540765  0.00436330     0.77400
O260        O  0.21690081  0.57292631  0.08246840    -0.61000
O261        O  0.24873403  0.58679946  0.13178808    -0.51900
C262        C  0.18973865  0.50774322  0.14558135     0.70100
O263        O  0.19191160  0.50647393  0.10280700    -0.46800
C264        C  0.27670488  0.54333593  0.11095675     0.74800
O265        O  0.21288009  0.52800128  0.02772510    -0.58600
O266        O  0.27662892  0.56424040  0.12071466    -0.48700
O267        O  0.25408609  0.56318376  0.02770329    -0.55100
C268        C  0.23303676  0.59155594  0.11013064     0.85000
O269        O  0.21077451  0.52828783  0.16379812    -0.57000
O270        O  0.25389359  0.52317766  0.09674189    -0.60300
In271      In  0.55786346  0.33988331  0.09665696     1.36900
C272        C  0.55599496  0.34043707  0.00540526     0.77400
O273        O  0.58563025  0.38518023  0.08177193    -0.61000
O274        O  0.60014569  0.36771053  0.12808543    -0.51900
C275        C  0.52062214  0.34008538  0.14989400     0.70100
O276        O  0.51546856  0.33065418  0.10971170    -0.46800
C277        C  0.55311741  0.29238263  0.11241000     0.74800
O278        O  0.53978670  0.34303155  0.03012755    -0.58600
O279        O  0.57456966  0.31532369  0.12231933    -0.48700
O280        O  0.57276847  0.33729001  0.02724508    -0.55100
C281        C  0.60527912  0.38874273  0.10623210     0.85000
O282        O  0.54485676  0.34916011  0.16328807    -0.57000
O283        O  0.53357064  0.29358794  0.09713172    -0.60300
In284      In  0.55343475  0.22245431  0.10033247     1.36900
C285        C  0.55266794  0.22505116  0.00929033     0.77400
O286        O  0.53158959  0.24439835  0.09872060    -0.61000
O287        O  0.57208474  0.26562350  0.12634781    -0.51900
C288        C  0.51443095  0.17860571  0.14817720     0.70100
O289        O  0.51564228  0.17955840  0.10500042    -0.46800
C290        C  0.59790952  0.22035648  0.11093239     0.74800
O291        O  0.53196935  0.20707581  0.03219779    -0.58600
O292        O  0.59446484  0.23631041  0.13451343    -0.48700
O293        O  0.57357636  0.24172708  0.03287266    -0.55100
C294        C  0.55193381  0.26667471  0.11389643     0.85000
O295        O  0.53284781  0.20073073  0.16727689    -0.57000
O296        O  0.57814718  0.20477111  0.08450193    -0.60300
C297        C  0.41334590  0.40339499  0.30637548    -0.02600
In298      In  0.24043301  0.66610035  0.11079432     1.36900
C299        C  0.24223518  0.66908967  0.01968987     0.77400
O300        O  0.26563854  0.71240852  0.10926156    -0.61000
O301        O  0.28293542  0.69320274  0.14299818    -0.51900
C302        C  0.19833283  0.66009514  0.16015068     0.70100
O303        O  0.20036029  0.66285218  0.11718184    -0.46800
C304        C  0.23440781  0.61734239  0.11436080     0.74800
O305        O  0.22500275  0.67076938  0.04309421    -0.58600
O306        O  0.25321836  0.63798672  0.13612360    -0.48700
O307        O  0.25935681  0.66706710  0.04283294    -0.55100
C308        C  0.28631122  0.71535043  0.12927509     0.85000
O309        O  0.21831837  0.66063465  0.17859374    -0.57000
O310        O  0.21767347  0.62109952  0.09392038    -0.60300
In311      In  0.36268062  0.78828873  0.11687905     1.36900
C312        C  0.36142500  0.78918862  0.02567970     0.77400
O313        O  0.40746105  0.80794937  0.09964815    -0.61000
O314        O  0.38907973  0.77440886  0.14658639    -0.51900
C315        C  0.36801603  0.82881671  0.16840179     0.70100
O316        O  0.35771842  0.82332156  0.12869935    -0.46800
C317        C  0.31299757  0.74209670  0.13132977     0.74800
O318        O  0.36852280  0.81007233  0.04953786    -0.58600
O319        O  0.33504576  0.74482331  0.14454467    -0.48700
O320        O  0.35523402  0.76810476  0.04833761    -0.55100
C321        C  0.41027817  0.79174999  0.12384536     0.85000
O322        O  0.37428840  0.81258893  0.18283175    -0.57000
O323        O  0.31616022  0.76368953  0.11523198    -0.60300
C324        C  0.43275336  0.00624510  0.33231207    -0.02600
C325        C  0.41231901  0.97799099  0.30769324    -0.20000
C326        C  0.40504594  0.97412792  0.26002203     0.36200
C327        C  0.39430283  0.94831002  0.23950625    -0.26000
C328        C  0.38934597  0.92558822  0.26502038     0.02600
C329        C  0.39304291  0.92817369  0.31292439     0.27400
C330        C  0.40490993  0.95405319  0.33323115    -0.25100
N331        N  0.41037235  0.99626997  0.23073238    -0.82500
H332        H  0.39132439  0.94653128  0.20257820     0.13200
C333        C  0.38272290  0.90005158  0.24104587     0.02600
N334        N  0.38558235  0.90459821  0.34070776    -0.81100
H335        H  0.41001276  0.95591657  0.36945302     0.18100
C336        C  0.39857697  0.88922289  0.25098111    -0.25900
C337        C  0.39382602  0.86570998  0.22855682     0.36100
C338        C  0.37291677  0.85280511  0.19482718    -0.19900
C339        C  0.35727344  0.86378387  0.18444701    -0.25200
C340        C  0.36170718  0.88702750  0.20754648     0.27500
H341        H  0.41522763  0.89956362  0.27575844     0.13200
N342        N  0.41068930  0.85542749  0.23909639    -0.82500
H343        H  0.34128380  0.85399631  0.15846532     0.18100
N344        N  0.34481617  0.89730299  0.19735787    -0.81100
H345        H  0.42472606  0.86695358  0.26531910     0.33700
H346        H  0.42247485  0.85824044  0.20987564     0.38200
H347        H  0.33037761  0.88548078  0.17179402     0.33700
H348        H  0.33357123  0.89501137  0.22703112     0.30400
H349        H  0.38973284  0.90995852  0.37541359     0.33700
H350        H  0.36417823  0.89064564  0.33800587     0.30400
H351        H  0.39162094  0.99106606  0.21610131     0.38200
H352        H  0.42351054  0.99839873  0.20411191     0.33700
C353        C  0.49389086  0.15337838  0.17425002    -0.20000
C354        C  0.47761991  0.12729460  0.15277925     0.36200
C355        C  0.46116950  0.10363334  0.17999613    -0.26000
C356        C  0.46109687  0.10536759  0.22795733     0.02600
C357        C  0.47576690  0.13134721  0.24917093     0.27400
C358        C  0.49189729  0.15510962  0.22211503    -0.25100
N359        N  0.47901216  0.12455490  0.10389859    -0.82500
H360        H  0.45025191  0.08351685  0.16409416     0.13200
C361        C  0.45264037  0.08046725  0.25524315     0.02600
N362        N  0.47556770  0.13322069  0.29843853    -0.81100
H363        H  0.50394666  0.17495671  0.23877985     0.18100
C364        C  0.47395186  0.07813199  0.27029886    -0.25900
C365        C  0.46892555  0.05536576  0.29517441     0.36100
C366        C  0.44103595  0.03267718  0.30405038    -0.19900
C367        C  0.41974820  0.03638594  0.29130713    -0.25200
C368        C  0.42505676  0.05945531  0.26603870     0.27500
H369        H  0.49520834  0.09471776  0.26328580     0.13200
N370        N  0.49269777  0.05715163  0.31385486    -0.82500
H371        H  0.39849497  0.02053778  0.29982758     0.18100
N372        N  0.40205636  0.06064352  0.25181919    -0.81100
H373        H  0.50582632  0.05995722  0.28669970     0.33700
H374        H  0.50343518  0.07457988  0.33470553     0.38200
H375        H  0.39230597  0.06127139  0.28154254     0.33700
H376        H  0.40861649  0.07865933  0.23349118     0.30400
H377        H  0.48776814  0.15376449  0.30886662     0.33700
H378        H  0.45530754  0.12574217  0.30846900     0.30400
H379        H  0.49864446  0.12888500  0.09642427     0.38200
H380        H  0.46490446  0.10422584  0.09370686     0.33700
C381        C  0.42096832  0.38310210  0.28860183    -0.20000
C382        C  0.43670868  0.37566426  0.31568350     0.36200
C383        C  0.44673006  0.36118995  0.29538369    -0.26000
C384        C  0.44386688  0.35555667  0.24833609     0.02600
C385        C  0.42593915  0.35968782  0.22254204     0.27400
C386        C  0.41385828  0.37232762  0.24336037    -0.25100
N387        N  0.44611221  0.38508681  0.36189550    -0.82500
H388        H  0.45972999  0.35709157  0.31568626     0.13200
C389        C  0.46314171  0.34971820  0.22591298     0.02600
N390        N  0.42113158  0.35235595  0.17468094    -0.81100
H391        H  0.40038720  0.37531898  0.22240586     0.18100
C392        C  0.45316549  0.32675051  0.19733868    -0.25900
C393        C  0.47154612  0.32258630  0.17307367     0.36100
C394        C  0.50037387  0.34161056  0.17802899    -0.19900
C395        C  0.51021688  0.36374232  0.20810569    -0.25200
C396        C  0.49201045  0.36818466  0.23136103     0.27500
H397        H  0.43105988  0.31230096  0.19349360     0.13200
N398        N  0.46109989  0.29923059  0.14340051    -0.82500
H399        H  0.53228155  0.37855312  0.21191012     0.18100
N400        N  0.50308124  0.39230891  0.25894147    -0.81100
H401        H  0.43947819  0.28731930  0.14343564     0.33700
H402        H  0.46726112  0.28688333  0.15711930     0.38200
H403        H  0.51554147  0.39186876  0.28442986     0.33700
H404        H  0.51556888  0.40949236  0.23802971     0.30400
H405        H  0.40722702  0.35647193  0.16065468     0.33700
H406        H  0.43984507  0.36499566  0.15719671     0.30400
H407        H  0.44109986  0.39842384  0.37424404     0.38200
H408        H  0.43695345  0.36790819  0.38366044     0.33700
C409        C  0.35271747  0.48780245  0.16682047    -0.20000
C410        C  0.33904475  0.46028793  0.15116927     0.36200
C411        C  0.34537736  0.44249593  0.17127789    -0.26000
C412        C  0.36513281  0.45167118  0.20616117     0.02600
C413        C  0.37749209  0.47843563  0.22379268     0.27400
C414        C  0.37112628  0.49622246  0.20400843    -0.25100
N415        N  0.31894881  0.45043958  0.11486855    -0.82500
H416        H  0.33570836  0.42172823  0.15848229     0.13200
C417        C  0.37418384  0.43390580  0.22251012     0.02600
N418        N  0.39695810  0.48757398  0.26103230    -0.81100
H419        H  0.38141616  0.51709434  0.21660187     0.18100
C420        C  0.40075673  0.44111119  0.21119479    -0.25900
C421        C  0.41228004  0.42831750  0.23287846     0.36100
C422        C  0.39776174  0.40927619  0.26926986    -0.19900
C423        C  0.36918571  0.39840773  0.27329780    -0.25200
C424        C  0.35742890  0.41097424  0.25097500     0.27500
H425        H  0.41300984  0.45746551  0.18652741     0.13200
N426        N  0.43901891  0.43536753  0.21867362    -0.82500
H427        H  0.35631064  0.38135333  0.29632129     0.18100
N428        N  0.32897947  0.40129503  0.25852917    -0.81100
H429        H  0.45292394  0.45663895  0.22193816     0.33700
H430        H  0.43793636  0.43044298  0.18386763     0.38200
H431        H  0.31942264  0.38406000  0.28014992     0.33700
H432        H  0.32860661  0.41671508  0.27586911     0.30400
H433        H  0.40433909  0.50785416  0.26984722     0.33700
H434        H  0.38634958  0.47546019  0.28981969     0.30400
H435        H  0.32968415  0.45908041  0.08409729     0.38200
H436        H  0.30887722  0.42917467  0.11114477     0.33700
C437        C  0.17411566  0.65571198  0.18629298    -0.20000
C438        C  0.15034931  0.65138082  0.16370170     0.36200
C439        C  0.12647479  0.64328820  0.18946812    -0.26000
C440        C  0.12595587  0.64001097  0.23724493     0.02600
C441        C  0.15032111  0.64674733  0.26024009     0.27400
C442        C  0.17406079  0.65427107  0.23456480    -0.25100
N443        N  0.14999495  0.65401475  0.11455744    -0.82500
H444        H  0.10771739  0.63812110  0.17195341     0.13200
C445        C  0.09892088  0.62480021  0.26158990     0.02600
N446        N  0.15041847  0.64488539  0.30955796    -0.81100
H447        H  0.19231927  0.65823196  0.25230402     0.18100
C448        C  0.08988278  0.59892189  0.27919475    -0.25900
C449        C  0.06416480  0.58236228  0.30072281     0.36100
C450        C  0.04727810  0.59272852  0.30913295    -0.19900
C451        C  0.05575861  0.61805667  0.28735557    -0.25200
C452        C  0.08127994  0.63414325  0.26406093     0.27500
H453        H  0.10255566  0.59081005  0.27427121     0.13200
N454        N  0.05509785  0.55453111  0.31016270    -0.82500
H455        H  0.04266007  0.62579534  0.29004920     0.18100
N456        N  0.08935210  0.65989952  0.24320860    -0.81100
H457        H  0.06992835  0.55488913  0.33102477     0.33700
H458        H  0.05436828  0.54512875  0.27915921     0.38200
H459        H  0.07394834  0.66372934  0.24775929     0.33700
H460        H  0.10685992  0.67544950  0.26058195     0.30400
H461        H  0.16984579  0.65035816  0.32129261     0.33700
H462        H  0.14706027  0.65938884  0.32285723     0.30400
H463        H  0.16387267  0.67478979  0.10639966     0.38200
H464        H  0.13057392  0.64886730  0.10340275     0.33700
C465        C  0.99689837  0.57291017  0.30075231    -0.20000
C466        C  0.99179039  0.55742381  0.25982723     0.36200
C467        C  0.96857506  0.54952194  0.23255993    -0.26000
C468        C  0.95088607  0.55793012  0.24323414     0.02600
C469        C  0.95821958  0.57693661  0.27895264     0.27400
C470        C  0.98129371  0.58462126  0.30669979    -0.25100
N471        N  0.00919545  0.54826019  0.24710986    -0.82500
H472        H  0.96372557  0.53574342  0.20391604     0.13200
C473        C  0.92396784  0.54527407  0.21874654     0.02600
N474        N  0.94193344  0.58808778  0.28721336    -0.81100
H475        H  0.98623151  0.59913767  0.33395973     0.18100
C476        C  0.89932672  0.52971968  0.24404880    -0.25900
C477        C  0.87340604  0.51447822  0.22208359     0.36100
C478        C  0.87200974  0.51536908  0.17354420    -0.19900
C479        C  0.89673344  0.53205908  0.14853656    -0.25200
C480        C  0.92263268  0.54678686  0.17055258     0.27500
H481        H  0.90044402  0.52845342  0.28110218     0.13200
N482        N  0.84873377  0.49771726  0.24900630    -0.82500
H483        H  0.89598957  0.53301721  0.11138582     0.18100
N484        N  0.94763260  0.56293712  0.14414789    -0.81100
H485        H  0.85327573  0.50078777  0.28414036     0.33700
H486        H  0.84148507  0.47718202  0.24268604     0.38200
H487        H  0.94316133  0.56178376  0.10906801     0.33700
H488        H  0.95695028  0.58348941  0.15364663     0.30400
H489        H  0.94992630  0.60177187  0.31483616     0.33700
H490        H  0.94368528  0.59956271  0.25815307     0.30400
H491        H  0.01736166  0.55622529  0.21449619     0.38200
H492        H  0.99704721  0.52682216  0.24464136     0.33700
C493        C  0.00886239  0.43033361  0.35450401    -0.20000
C494        C  0.98384661  0.42660864  0.37089624     0.36200
C495        C  0.98427284  0.44883498  0.38998008    -0.26000
C496        C  0.00870566  0.47518408  0.39078068     0.02600
C497        C  0.03395192  0.47700600  0.38556786     0.27400
C498        C  0.03351033  0.45419043  0.36999550    -0.25100
N499        N  0.95772627  0.40090526  0.36654901    -0.82500
H500        H  0.96483760  0.44606675  0.39934731     0.13200
C501        C  0.00681689  0.49970614  0.38622040     0.02600
N502        N  0.06048292  0.50170736  0.39342993    -0.81100
H503        H  0.05311414  0.45649477  0.36567928     0.18100
C504        C  0.02526052  0.52439040  0.40918718    -0.25900
C505        C  0.02938564  0.54937333  0.39444516     0.36100
C506        C  0.01285082  0.54975019  0.35841210    -0.19900
C507        C  0.99039698  0.52393570  0.34347113    -0.25200
C508        C  0.98827851  0.49955832  0.35440754     0.27500
H509        H  0.03794943  0.52485669  0.43677593     0.13200
N510        N  0.05176082  0.57441956  0.41401346    -0.82500
H511        H  0.97467556  0.52203168  0.32108715     0.18100
N512        N  0.96792717  0.47499259  0.33080865    -0.81100
H513        H  0.04843160  0.57375158  0.44948457     0.33700
H514        H  0.07008015  0.57542224  0.40871271     0.38200
H515        H  0.94843573  0.47099021  0.33837588     0.33700
H516        H  0.97123169  0.47866586  0.29543299     0.30400
H517        H  0.06213784  0.50694415  0.42819862     0.33700
H518        H  0.06278783  0.51737783  0.37264843     0.30400
H519        H  0.94918870  0.39442761  0.39943766     0.38200
H520        H  0.94456658  0.40410718  0.34721548     0.33700
C521        C  0.03551903  0.42035368  0.29276019    -0.20000
C522        C  0.04409836  0.40354493  0.27515337     0.36200
C523        C  0.06960548  0.41554042  0.25191970    -0.26000
C524        C  0.08616908  0.44389296  0.24302326     0.02600
C525        C  0.07561796  0.45995306  0.25350043     0.27400
C526        C  0.05093071  0.44817376  0.27821283    -0.25100
N527        N  0.02761095  0.37442574  0.28252975    -0.82500
H528        H  0.07666540  0.40266942  0.24132757     0.13200
C529        C  0.11369385  0.45634625  0.22089237     0.02600
N530        N  0.08926186  0.48833271  0.23976622    -0.81100
H531        H  0.04435283  0.46167014  0.28614719     0.18100
C532        C  0.11487951  0.45126682  0.17427286    -0.25900
C533        C  0.13967429  0.46687932  0.14919246     0.36100
C534        C  0.16407004  0.48782732  0.17163484    -0.19900
C535        C  0.16323958  0.49118007  0.21935568    -0.25200
C536        C  0.13830384  0.47573165  0.24421807     0.27500
H537        H  0.09595020  0.43622837  0.15668258     0.13200
N538        N  0.13968155  0.46215446  0.10069844    -0.82500
H539        H  0.18186630  0.50672286  0.23705633     0.18100
N540        N  0.13780433  0.47992390  0.29284787    -0.81100
H541        H  0.12074681  0.44472751  0.09062081     0.33700
H542        H  0.14136269  0.47875092  0.08344218     0.38200
H543        H  0.15777836  0.49415953  0.30495483     0.33700
H544        H  0.12655617  0.48870605  0.29828471     0.30400
H545        H  0.07566757  0.48987005  0.21848089     0.33700
H546        H  0.10679786  0.49493998  0.21981683     0.30400
H547        H  0.02277343  0.36485506  0.25042466     0.38200
H548        H  0.03951600  0.36899628  0.30047373     0.33700
C549        C  0.58428476  0.01446673  0.33807502    -0.20000
C550        C  0.58225819  0.03770365  0.33675419     0.36200
C551        C  0.55685405  0.03420214  0.34564637    -0.26000
C552        C  0.53404860  0.00884853  0.36005391     0.02600
C553        C  0.53748993  0.98761560  0.37165407     0.27400
C554        C  0.56281957  0.99091537  0.36169078    -0.25100
N555        N  0.60573057  0.06500920  0.32821756    -0.82500
H556        H  0.55468863  0.05126528  0.33999827     0.13200
C557        C  0.50649335  0.00417677  0.35577905     0.02600
N558        N  0.51484989  0.96228635  0.39072475    -0.81100
H559        H  0.56477224  0.97389469  0.36842948     0.18100
C560        C  0.49617293  0.00176982  0.31150104    -0.25900
C561        C  0.47256869  0.00193102  0.30372326     0.36100
C562        C  0.45830385  0.00444871  0.34129816    -0.19900
C563        C  0.46739730  0.00362503  0.38621240    -0.25200
C564        C  0.49187410  0.00464953  0.39367889     0.27500
H565        H  0.50738953  0.00112532  0.28228172     0.13200
N566        N  0.46434334  0.00144078  0.25710527    -0.82500
H567        H  0.45595814  0.00257293  0.41604336     0.18100
N568        N  0.50220488  0.00667726  0.43944394    -0.81100
H569        H  0.46019064  0.98334095  0.24190403     0.33700
H570        H  0.48087230  0.01801692  0.23933034     0.38200
H571        H  0.52122215  0.02554158  0.44195038     0.33700
H572        H  0.48919987  0.00713978  0.46367170     0.30400
H573        H  0.51073343  0.96660643  0.42336587     0.33700
H574        H  0.52056989  0.94836090  0.39574838     0.30400
H575        H  0.60879338  0.07691997  0.35716944     0.38200
H576        H  0.60109782  0.07332684  0.30060934     0.33700
C577        C  0.53951502  0.85707205  0.18561803    -0.20000
C578        C  0.53562253  0.86094535  0.23220368     0.36200
C579        C  0.55141727  0.88746467  0.25104235    -0.26000
C580        C  0.57104282  0.91017118  0.22453918     0.02600
C581        C  0.57693215  0.90596722  0.17960040     0.27400
C582        C  0.56123801  0.87937298  0.16068574    -0.25100
N583        N  0.51486427  0.83829343  0.25963991    -0.82500
H584        H  0.54736694  0.89078527  0.28594313     0.13200
C585        C  0.58171500  0.93811135  0.24242290     0.02600
N586        N  0.59771517  0.92885396  0.15258277    -0.81100
H587        H  0.56479629  0.87648993  0.12523931     0.18100
C588        C  0.60990648  0.95700804  0.25128833    -0.25900
C589        C  0.61920278  0.98214964  0.27337748     0.36100
C590        C  0.59987793  0.98803637  0.28922127    -0.19900
C591        C  0.57208644  0.97004005  0.27493378    -0.25200
C592        C  0.56299318  0.94553879  0.25171653     0.27500
H593        H  0.62463874  0.95193533  0.24224256     0.13200
N594        N  0.64815169  0.00106663  0.28168793    -0.82500
H595        H  0.55706408  0.97508187  0.28046903     0.18100
N596        N  0.53461082  0.92796152  0.23742429    -0.81100
H597        H  0.65518629  0.99093568  0.30082971     0.33700
H598        H  0.65832732  0.00658411  0.24994645     0.38200
H599        H  0.52329871  0.93620535  0.24702272     0.33700
H600        H  0.53440461  0.92737754  0.20151090     0.30400
H601        H  0.59958953  0.92222732  0.12027515     0.33700
H602        H  0.59102443  0.94192351  0.14677420     0.30400
H603        H  0.52078913  0.82447830  0.26337187     0.38200
H604        H  0.51424121  0.84485218  0.29279877     0.33700
C605        C  0.56532131  0.56009507  0.33777468    -0.20000
C606        C  0.54058878  0.55924208  0.33016074     0.36200
C607        C  0.51496820  0.53464035  0.33723561    -0.26000
C608        C  0.51317347  0.51186377  0.35692784     0.02600
C609        C  0.53703754  0.51529164  0.37656615     0.27400
C610        C  0.56289198  0.53968122  0.36773431    -0.25100
N611        N  0.54084414  0.58306556  0.31739168    -0.82500
H612        H  0.49658053  0.53310045  0.32489236     0.13200
C613        C  0.48802364  0.48411260  0.34852770     0.02600
N614        N  0.53508900  0.49320263  0.40216652    -0.81100
H615        H  0.58139779  0.54131675  0.37969390     0.18100
C616        C  0.49123401  0.46544567  0.32459484    -0.25900
C617        C  0.46854720  0.44057882  0.30805935     0.36100
C618        C  0.44079480  0.43245891  0.31822398    -0.19900
C619        C  0.43865943  0.45367690  0.33660144    -0.25200
C620        C  0.46131403  0.47815293  0.35461967     0.27500
H621        H  0.51185499  0.47105786  0.31562643     0.13200
N622        N  0.47463611  0.42585361  0.27666603    -0.82500
H623        H  0.41969161  0.45252318  0.33453580     0.18100
N624        N  0.45727143  0.49729176  0.37801932    -0.81100
H625        H  0.48781075  0.42173153  0.29364926     0.33700
H626        H  0.48558027  0.43867249  0.24873521     0.38200
H627        H  0.43625872  0.48976982  0.37984367     0.33700
H628        H  0.46399720  0.49879428  0.41193227     0.30400
H629        H  0.55461460  0.49885517  0.41365393     0.33700
H630        H  0.52322695  0.48992117  0.43150929     0.30400
H631        H  0.53122879  0.58702905  0.34360027     0.38200
H632        H  0.52892503  0.57850991  0.28765860     0.33700
C633        C  0.52896272  0.66208687  0.17720499    -0.20000
C634        C  0.52634002  0.65528756  0.22456775     0.36200
C635        C  0.54375927  0.64818721  0.24419492    -0.26000
C636        C  0.56361341  0.64767980  0.21761692     0.02600
C637        C  0.56721235  0.65578638  0.17117462     0.27400
C638        C  0.54996848  0.66297392  0.15150177    -0.25100
N639        N  0.50588106  0.65516527  0.25249745    -0.82500
H640        H  0.54103439  0.64180610  0.27992724     0.13200
C641        C  0.57786314  0.63525385  0.23733766     0.02600
N642        N  0.58795426  0.65599418  0.14395390    -0.81100
H643        H  0.55245397  0.66847397  0.11537238     0.18100
C644        C  0.57076164  0.60988528  0.22015249    -0.25900
C645        C  0.57822636  0.59389048  0.24302662     0.36100
C646        C  0.59308618  0.60311099  0.28571590    -0.19900
C647        C  0.60454440  0.63099791  0.29721684    -0.25200
C648        C  0.59641261  0.64675336  0.27466373     0.27500
H649        H  0.55752883  0.60143605  0.19016124     0.13200
N650        N  0.56846770  0.56771371  0.22302915    -0.82500
H651        H  0.61894333  0.64063103  0.32533291     0.18100
N652        N  0.60696980  0.67401486  0.29120131    -0.81100
H653        H  0.55535778  0.55208795  0.24586917     0.33700
H654        H  0.58525603  0.56678417  0.21362819     0.38200
H655        H  0.62845603  0.68550888  0.28737707     0.33700
H656        H  0.60005487  0.68389266  0.27113604     0.30400
H657        H  0.58791903  0.66232300  0.11028403     0.33700
H658        H  0.60721526  0.67072657  0.15797346     0.30400
H659        H  0.48651969  0.63840856  0.24231601     0.38200
H660        H  0.50811553  0.65165613  0.28701757     0.33700
C661        C  0.60928991  0.57160967  0.29167899    -0.20000
C662        C  0.59759403  0.54342690  0.27972221     0.36200
C663        C  0.61393325  0.53579801  0.25853018    -0.26000
C664        C  0.64141326  0.55500184  0.24645828     0.02600
C665        C  0.65267613  0.58321821  0.25380990     0.27400
C666        C  0.63625156  0.59107742  0.27468067    -0.25100
N667        N  0.56887413  0.52231450  0.28511277    -0.82500
H668        H  0.60465676  0.51429641  0.25036141     0.13200
C669        C  0.65659952  0.54423187  0.22430354     0.02600
N670        N  0.68079453  0.60438619  0.24228586    -0.81100
H671        H  0.64546759  0.61276039  0.28089911     0.18100
C672        C  0.66473461  0.55065533  0.17818804    -0.25900
C673        C  0.67462744  0.53703787  0.15379693     0.36100
C674        C  0.67517019  0.51556848  0.17551912    -0.19900
C675        C  0.66842024  0.51027710  0.22244313    -0.25200
C676        C  0.65944019  0.52458524  0.24712331     0.27500
H677        H  0.66251989  0.56575558  0.16077913     0.13200
N678        N  0.68325404  0.54441514  0.10672272    -0.82500
H679        H  0.66924724  0.49427363  0.23963121     0.18100
N680        N  0.65218703  0.51859385  0.29495685    -0.81100
H681        H  0.68083651  0.56002085  0.09578145     0.33700
H682        H  0.70446102  0.55268816  0.10542812     0.38200
H683        H  0.65526656  0.50354822  0.30666522     0.33700
H684        H  0.66575821  0.53645644  0.31348673     0.30400
H685        H  0.69084714  0.61434424  0.27280973     0.33700
H686        H  0.69146877  0.59619576  0.22937842     0.30400
H687        H  0.56057838  0.51413851  0.25270960     0.38200
H688        H  0.56723323  0.50651416  0.30495534     0.33700
C689        C  0.98456887  0.39498872  0.29055222    -0.20000
C690        C  0.97808626  0.41172803  0.26539773     0.36200
C691        C  0.95285399  0.39992848  0.24240777    -0.26000
C692        C  0.93413282  0.37153433  0.24070001     0.02600
C693        C  0.94191370  0.35441783  0.25897565     0.27400
C694        C  0.96728109  0.36629927  0.28293630    -0.25100
N695        N  0.99654211  0.44099504  0.26425424    -0.82500
H696        H  0.94768315  0.41322348  0.22606686     0.13200
C697        C  0.90679701  0.36078220  0.21899346     0.02600
N698        N  0.92390274  0.32513382  0.25373168    -0.81100
H699        H  0.97295776  0.35293008  0.29693373     0.18100
C700        C  0.90111652  0.34878026  0.17533649    -0.25900
C701        C  0.87736702  0.34247321  0.15073072     0.36100
C702        C  0.85920381  0.34890423  0.16996774    -0.19900
C703        C  0.86438887  0.35974124  0.21467552    -0.25200
C704        C  0.88784580  0.36557135  0.23941983     0.27500
H705        H  0.91573954  0.34513056  0.15984348     0.13200
N706        N  0.87209322  0.33017181  0.10597885    -0.82500
H707        H  0.85046545  0.36437779  0.23004943     0.18100
N708        N  0.89293988  0.37700821  0.28487230    -0.81100
H709        H  0.88782654  0.32754814  0.09648398     0.33700
H710        H  0.85401256  0.31045073  0.10840368     0.38200
H711        H  0.87717828  0.37948750  0.29490514     0.33700
H712        H  0.89223610  0.36272813  0.30759766     0.30400
H713        H  0.93263393  0.31541123  0.26889922     0.33700
H714        H  0.90568676  0.31854420  0.27181198     0.30400
H715        H  0.00149163  0.44719875  0.22988117     0.38200
H716        H  0.98626619  0.44952568  0.27752707     0.33700
C717        C  0.66926153  0.16214543  0.17018883    -0.20000
C718        C  0.66968110  0.16005028  0.21867860     0.36200
C719        C  0.66707886  0.13665859  0.23855248    -0.26000
C720        C  0.66346951  0.11519577  0.21105110     0.02600
C721        C  0.66423643  0.11785247  0.16286574     0.27400
C722        C  0.66729577  0.14126919  0.14302919    -0.25100
N723        N  0.67200983  0.18112309  0.24759985    -0.82500
H724        H  0.66600515  0.13429571  0.27564045     0.13200
C725        C  0.65321644  0.08807927  0.23246394     0.02600
N726        N  0.66070146  0.09609758  0.13429856    -0.81100
H727        H  0.66724699  0.14271906  0.10587476     0.18100
C728        C  0.62661494  0.06625216  0.22095725    -0.25900
C729        C  0.61329405  0.04165030  0.24574955     0.36100
C730        C  0.62654634  0.03849231  0.28421211    -0.19900
C731        C  0.65507439  0.05885627  0.29015456    -0.25200
C732        C  0.66823364  0.08400040  0.26571021     0.27500
H733        H  0.61519958  0.06895130  0.19439813     0.13200
N734        N  0.58529975  0.02092800  0.23398605    -0.82500
H735        H  0.66699237  0.05587186  0.31507094     0.18100
N736        N  0.69650511  0.10551586  0.27497108    -0.81100
H737        H  0.58495175  0.01515427  0.19986646     0.33700
H738        H  0.57353197  0.02940189  0.23609771     0.38200
H739        H  0.70465833  0.09932700  0.30053971     0.33700
H740        H  0.70787255  0.10867159  0.24506705     0.30400
H741        H  0.66124256  0.10093628  0.09947710     0.33700
H742        H  0.67755302  0.09457883  0.14009704     0.30400
H743        H  0.65369724  0.18035737  0.24428334     0.38200
H744        H  0.67324339  0.17693425  0.28220946     0.33700
C745        C  0.03464152  0.61810086  0.61429806    -0.20000
C746        C  0.05735041  0.62465433  0.58537480     0.36200
C747        C  0.05592901  0.62773817  0.53786706    -0.26000
C748        C  0.03302289  0.62588291  0.51787243     0.02600
C749        C  0.01298303  0.62468128  0.54707391     0.27400
C750        C  0.01348935  0.61993334  0.59421896    -0.25100
N751        N  0.08073407  0.62536749  0.60322748    -0.82500
H752        H  0.07176012  0.62898935  0.51624174     0.13200
C753        C  0.02745573  0.61859721  0.46819711     0.02600
N754        N  0.99080734  0.62639145  0.52966543    -0.81100
H755        H  0.99566927  0.61550382  0.61345998     0.18100
C756        C  0.00231633  0.59462484  0.45610668    -0.25900
C757        C  0.99783416  0.58269389  0.41265994     0.36100
C758        C  0.02003543  0.59424170  0.37964468    -0.19900
C759        C  0.04455322  0.61984479  0.39148520    -0.25200
C760        C  0.04815943  0.63220146  0.43461031     0.27500
H761        H  0.98618175  0.58391087  0.48179204     0.13200
N762        N  0.97099833  0.55780929  0.40567675    -0.82500
H763        H  0.06233221  0.62979566  0.36934089     0.18100
N764        N  0.07346393  0.65789858  0.44533218    -0.81100
H765        H  0.95632576  0.56275107  0.40871987     0.33700
H766        H  0.96829315  0.54972045  0.37300597     0.38200
H767        H  0.08691848  0.66529142  0.41715487     0.33700
H768        H  0.06849765  0.67225993  0.45170375     0.30400
H769        H  0.99186528  0.64273846  0.54645374     0.33700
H770        H  0.99376293  0.63176225  0.49485508     0.30400
H771        H  0.08220526  0.61051788  0.58614764     0.38200
H772        H  0.09852607  0.64463916  0.59559218     0.33700
C773        C  0.87071562  0.52676260  0.79238140    -0.20000
C774        C  0.87230534  0.52745440  0.74375528     0.36200
C775        C  0.89810328  0.54483722  0.72216691    -0.26000
C776        C  0.92225650  0.56126159  0.74802544     0.02600
C777        C  0.92050997  0.56199084  0.79616872     0.27400
C778        C  0.89473969  0.54494729  0.81782990    -0.25100
N779        N  0.84813006  0.50983896  0.71641378    -0.82500
H780        H  0.89973190  0.54422497  0.68511202     0.13200
C781        C  0.94934281  0.57240443  0.72562661     0.02600
N782        N  0.94512943  0.57901786  0.82296026    -0.81100
H783        H  0.89372007  0.54494916  0.85503451     0.18100
C784        C  0.96818337  0.60071617  0.71903936    -0.25900
C785        C  0.99437771  0.61110977  0.69936904     0.36100
C786        C  0.00182156  0.59287775  0.68444841    -0.19900
C787        C  0.98302195  0.56457135  0.69493627    -0.25200
C788        C  0.95711137  0.55429110  0.71449434     0.27500
H789        H  0.96263924  0.61481293  0.72956569     0.13200
N790        N  0.01343161  0.64025817  0.69465116    -0.82500
H791        H  0.98853865  0.54993838  0.69041629     0.18100
N792        N  0.93876099  0.52536508  0.72432795    -0.81100
H793        H  0.01730040  0.64894379  0.72746089     0.33700
H794        H  0.00398092  0.64790844  0.67522251     0.38200
H795        H  0.94724929  0.51455311  0.71335076     0.33700
H796        H  0.93669610  0.52300784  0.76006997     0.30400
H797        H  0.94029595  0.57735148  0.85795195     0.33700
H798        H  0.95767534  0.57150842  0.81901855     0.30400
H799        H  0.84260902  0.48966931  0.72137069     0.38200
H800        H  0.85267930  0.51410862  0.68140182     0.33700
C801        C  0.39482968  0.39115388  0.35126750    -0.20000
C802        C  0.38700728  0.36596765  0.37323725     0.36200
C803        C  0.38550584  0.36455425  0.42171454    -0.26000
C804        C  0.38756439  0.38603681  0.44679064     0.02600
C805        C  0.38552396  0.40584287  0.42331821     0.27400
C806        C  0.38679505  0.40658837  0.37530478    -0.25100
N807        N  0.38090544  0.34242799  0.34711406    -0.82500
H808        H  0.38428303  0.34765531  0.43972041     0.13200
C809        C  0.39695786  0.39097009  0.49508373     0.02600
N810        N  0.38435902  0.42631789  0.44840864    -0.81100
H811        H  0.38297227  0.42032270  0.35752219     0.18100
C812        C  0.42405313  0.41299893  0.50277733    -0.25900
C813        C  0.43477795  0.42089893  0.54708330     0.36100
C814        C  0.41718992  0.40775007  0.58629654    -0.19900
C815        C  0.39100611  0.38332671  0.57757717    -0.25200
C816        C  0.38039453  0.37522473  0.53278638     0.27500
H817        H  0.43742000  0.42400876  0.47361126     0.13200
N818        N  0.46398601  0.44067103  0.55073909    -0.82500
H819        H  0.37796356  0.37122029  0.60627655     0.18100
N820        N  0.35274045  0.35143009  0.52724795    -0.81100
H821        H  0.46901393  0.45858764  0.53334096     0.33700
H822        H  0.47419938  0.43281919  0.53441723     0.38200
H823        H  0.33934682  0.35566215  0.54297975     0.33700
H824        H  0.34704142  0.34764561  0.49266505     0.30400
H825        H  0.38387831  0.44001385  0.42584389     0.33700
H826        H  0.36575941  0.41621915  0.46678089     0.30400
H827        H  0.36366660  0.33656943  0.32671688     0.38200
H828        H  0.37529029  0.32585317  0.36895188     0.33700
C829        C  0.42700882  0.39117299  0.65761698    -0.20000
C830        C  0.41345684  0.37602908  0.69840495     0.36200
C831        C  0.42364877  0.36213825  0.72153167    -0.26000
C832        C  0.44570843  0.36150442  0.70354010     0.02600
C833        C  0.45424414  0.37064212  0.65794195     0.27400
C834        C  0.44373589  0.38409081  0.63475495    -0.25100
N835        N  0.38954238  0.37438317  0.71622284    -0.82500
H836        H  0.41519524  0.35280242  0.75480677     0.13200
C837        C  0.46174613  0.35454461  0.73415303     0.02600
N838        N  0.47540494  0.36865038  0.63673922    -0.81100
H839        H  0.45232089  0.39297752  0.60136926     0.18100
C840        C  0.46842737  0.33598519  0.71958432    -0.25900
C841        C  0.48744698  0.33278484  0.74411630     0.36100
C842        C  0.49894604  0.34738460  0.78559596    -0.19900
C843        C  0.49073809  0.36445155  0.80163303    -0.25200
C844        C  0.47292127  0.36872503  0.77602514     0.27500
H845        H  0.45957670  0.32472793  0.68792200     0.13200
N846        N  0.49501546  0.31481498  0.72689415    -0.82500
H847        H  0.49934088  0.37565092  0.83342958     0.18100
N848        N  0.46709669  0.38834648  0.79156325    -0.81100
H849        H  0.48349032  0.30449898  0.69757706     0.33700
H850        H  0.51559847  0.32713809  0.71605859     0.38200
H851        H  0.47668508  0.39680325  0.82309443     0.33700
H852        H  0.47584490  0.40456728  0.76781752     0.30400
H853        H  0.47899743  0.37598975  0.60288952     0.33700
H854        H  0.49379194  0.38158513  0.65472278     0.30400
H855        H  0.37378613  0.36410859  0.69190095     0.38200
H856        H  0.38244122  0.36254037  0.74631873     0.33700
C857        C  0.36353758  0.49748962  0.79093030    -0.20000
C858        C  0.35900985  0.47323913  0.81144508     0.36200
C859        C  0.36681602  0.45760644  0.78765115    -0.26000
C860        C  0.37922448  0.46568073  0.74411420     0.02600
C861        C  0.38402845  0.48994861  0.72387169     0.27400
C862        C  0.37579246  0.50532273  0.74712829    -0.25100
N863        N  0.34694232  0.46470405  0.85653501    -0.82500
H864        H  0.36327869  0.43901898  0.80314726     0.13200
C865        C  0.38769584  0.44897895  0.72021642     0.02600
N866        N  0.39799378  0.49930253  0.68029042    -0.81100
H867        H  0.37978817  0.52404331  0.73145390     0.18100
C868        C  0.37634404  0.43762896  0.67730353    -0.25900
C869        C  0.38632047  0.42499829  0.65031314     0.36100
C870        C  0.40810115  0.42262604  0.66711709    -0.19900
C871        C  0.41765357  0.43242775  0.71243021    -0.25200
C872        C  0.40818877  0.44586453  0.73843984     0.27500
H873        H  0.36042623  0.43992271  0.66334677     0.13200
N874        N  0.37547653  0.41706315  0.60482245    -0.82500
H875        H  0.43424354  0.43123802  0.72642222     0.18100
N876        N  0.42028594  0.45750477  0.78243676    -0.81100
H877        H  0.37891674  0.43435287  0.58728012     0.33700
H878        H  0.35412425  0.40270640  0.60723179     0.38200
H879        H  0.43515587  0.45345064  0.79103693     0.33700
H880        H  0.43072061  0.47887127  0.77947925     0.30400
H881        H  0.39987490  0.51743099  0.67001587     0.33700
H882        H  0.41810187  0.50426196  0.68496677     0.30400
H883        H  0.32645041  0.45895673  0.85414712     0.38200
H884        H  0.34616194  0.44718326  0.86720924     0.33700
C885        C  0.41241179  0.99473404  0.61548639    -0.20000
C886        C  0.39152157  0.99884384  0.60066061     0.36200
C887        C  0.38742351  0.00100436  0.55329519    -0.26000
C888        C  0.40296630  0.99801541  0.52002984     0.02600
C889        C  0.42174935  0.99148647  0.53395621     0.27400
C890        C  0.42745888  0.99168315  0.58054160    -0.25100
N891        N  0.37511102  0.00183535  0.63371471    -0.82500
H892        H  0.37268552  0.00578909  0.54262892     0.13200
C893        C  0.40324151  0.00512514  0.47095797     0.02600
N894        N  0.43617567  0.98605449  0.50014396    -0.81100
H895        H  0.44498816  0.99078748  0.58807438     0.18100
C896        C  0.42726915  0.02898045  0.45472404    -0.25900
C897        C  0.43579215  0.03103739  0.40900790     0.36100
C898        C  0.41997298  0.00862185  0.37832708    -0.19900
C899        C  0.39259590  0.98824574  0.39252846    -0.25200
C900        C  0.38464643  0.98549857  0.43911758     0.27500
H901        H  0.44123291  0.04470843  0.47894987     0.13200
N902        N  0.46185620  0.05484696  0.39554373    -0.82500
H903        H  0.37793117  0.97301520  0.36856789     0.18100
N904        N  0.35853652  0.96216476  0.45455166    -0.81100
H905        H  0.47715216  0.05676299  0.41734687     0.33700
H906        H  0.46099373  0.07208219  0.40010939     0.38200
H907        H  0.34714669  0.94965801  0.42673884     0.33700
H908        H  0.36252072  0.95034234  0.47596365     0.30400
H909        H  0.44936077  0.98149867  0.51587544     0.33700
H910        H  0.42141625  0.96831602  0.48240090     0.30400
H911        H  0.35430145  0.98690541  0.62701364     0.38200
H912        H  0.37828411  0.02111609  0.62877476     0.33700
C913        C  0.50288603  0.16019427  0.78598045    -0.20000
C914        C  0.47398527  0.14691957  0.78233905     0.36200
C915        C  0.45822745  0.12136049  0.75974992    -0.26000
C916        C  0.47071016  0.10848449  0.74177461     0.02600
C917        C  0.49970404  0.12184375  0.74573065     0.27400
C918        C  0.51547415  0.14778460  0.76677830    -0.25100
N919        N  0.46079191  0.15947514  0.80143848    -0.82500
H920        H  0.43608866  0.11134960  0.75634954     0.13200
C921        C  0.45349567  0.08093208  0.71938235     0.02600
N922        N  0.51292534  0.10861509  0.72966815    -0.81100
H923        H  0.53762084  0.15777066  0.77029033     0.18100
C924        C  0.46069608  0.07740434  0.67537280    -0.25900
C925        C  0.44896101  0.05116211  0.65652640     0.36100
C926        C  0.42856397  0.02720249  0.68150959    -0.19900
C927        C  0.41795357  0.03163779  0.72183470    -0.25200
C928        C  0.43120548  0.05789558  0.74226617     0.27500
H929        H  0.47701945  0.09509873  0.65660891     0.13200
N930        N  0.45976512  0.04896090  0.61372545    -0.82500
H931        H  0.40052630  0.01457842  0.73960528     0.18100
N932        N  0.42302493  0.06094546  0.78727020    -0.81100
H933        H  0.45666716  0.05991411  0.58875521     0.33700
H934        H  0.48104784  0.05814552  0.61734009     0.38200
H935        H  0.40647484  0.04206690  0.79963277     0.33700
H936        H  0.43959314  0.06704303  0.80956578     0.30400
H937        H  0.53426027  0.12108736  0.73526562     0.33700
H938        H  0.50544586  0.09085090  0.74946957     0.30400
H939        H  0.46809073  0.17779702  0.78342026     0.38200
H940        H  0.43944060  0.14704848  0.79602273     0.33700
C941        C  0.36296701  0.85228551  0.81297208    -0.20000
C942        C  0.38635343  0.87059396  0.78581810     0.36200
C943        C  0.38938644  0.89449868  0.76819679    -0.26000
C944        C  0.36938622  0.90034697  0.77600450     0.02600
C945        C  0.34570246  0.88195875  0.80204626     0.27400
C946        C  0.34278177  0.85813085  0.82062157    -0.25100
N947        N  0.40748252  0.86546620  0.77747653    -0.82500
H948        H  0.40755881  0.90877673  0.74805519     0.13200
C949        C  0.37437227  0.92607717  0.75594036     0.02600
N950        N  0.32495676  0.88766923  0.80974269    -0.81100
H951        H  0.32481535  0.84419975  0.84144602     0.18100
C952        C  0.36314197  0.92521422  0.71298103    -0.25900
C953        C  0.37521115  0.94867597  0.68442662     0.36100
C954        C  0.39933914  0.97405484  0.69951571    -0.19900
C955        C  0.40733035  0.97504074  0.74603295    -0.25200
C956        C  0.39527817  0.95150693  0.77398554     0.27500
H957        H  0.34674064  0.90553407  0.69935857     0.13200
N958        N  0.36439423  0.94514480  0.63891754    -0.82500
H959        H  0.42530824  0.99380216  0.75918932     0.18100
N960        N  0.40578275  0.95284347  0.81937873    -0.81100
H961        H  0.36521992  0.92971155  0.62259912     0.33700
H962        H  0.34359734  0.93837707  0.64155440     0.38200
H963        H  0.42158584  0.97305995  0.82749976     0.33700
H964        H  0.38971731  0.94704764  0.84264865     0.30400
H965        H  0.30874688  0.87204134  0.82946524     0.33700
H966        H  0.33395916  0.90565169  0.82922269     0.30400
H967        H  0.39911491  0.84856584  0.75549309     0.38200
H968        H  0.42416143  0.88194216  0.75975569     0.33700
C969        C  0.17437587  0.66327014  0.81253739    -0.20000
C970        C  0.17096145  0.66232433  0.76434127     0.36200
C971        C  0.14764913  0.66053704  0.74589811    -0.26000
C972        C  0.12757058  0.65940798  0.77451052     0.02600
C973        C  0.13162279  0.66162448  0.82248128     0.27400
C974        C  0.15490596  0.66345537  0.84097020    -0.25100
N975        N  0.19044055  0.66203911  0.73434133    -0.82500
H976        H  0.14424894  0.65829383  0.70906947     0.13200
C977        C  0.10057555  0.65100403  0.75400582     0.02600
N978        N  0.11170545  0.66132502  0.85220673    -0.81100
H979        H  0.15764671  0.66466898  0.87795256     0.18100
C980        C  0.07681898  0.62669888  0.76969120    -0.25900
C981        C  0.05284720  0.61291070  0.74297659     0.36100
C982        C  0.05277863  0.62302596  0.69831256    -0.19900
C983        C  0.07471771  0.65023086  0.68758417    -0.25200
C984        C  0.09883677  0.66407198  0.71464564     0.27500
H985        H  0.07756804  0.61684213  0.80078189     0.13200
N986        N  0.02979653  0.58709497  0.75935364    -0.82500
H987        H  0.07413263  0.66019045  0.65664545     0.18100
N988        N  0.12204750  0.69076155  0.70135289    -0.81100
H989        H  0.02321834  0.59053608  0.79048756     0.33700
H990        H  0.03638984  0.57399271  0.76578183     0.38200
H991        H  0.11758477  0.69752826  0.67139617     0.33700
H992        H  0.12516491  0.70449998  0.72737867     0.30400
H993        H  0.11759001  0.66289604  0.88663985     0.33700
H994        H  0.11172192  0.67883903  0.84467839     0.30400
H995        H  0.18890509  0.64356810  0.74009294     0.38200
H996        H  0.18515348  0.66185630  0.69989666     0.33700
C997        C  0.58916402  0.57110546  0.64857035    -0.20000
C998        C  0.58440189  0.54684442  0.66947293     0.36200
C999        C  0.55775447  0.52307537  0.66963300    -0.26000
C1000       C  0.53756881  0.51961899  0.63861051     0.02600
C1001       C  0.54467514  0.54153488  0.60817208     0.27400
C1002       C  0.56936078  0.56723355  0.61534990    -0.25100
N1003       N  0.60634193  0.54469309  0.68589630    -0.82500
H1004       H  0.55358580  0.50697797  0.69343827     0.13200
C1005       C  0.50962035  0.49318779  0.63848804     0.02600
N1006       N  0.52702104  0.53781236  0.57024911    -0.81100
H1007       H  0.57292485  0.58460646  0.59543889     0.18100
C1008       C  0.48600131  0.49341108  0.62971893    -0.25900
C1009       C  0.45975008  0.46895760  0.62685960     0.36100
C1010       C  0.45567595  0.44343136  0.64012114    -0.19900
C1011       C  0.47928014  0.44442134  0.65553095    -0.25200
C1012       C  0.50596476  0.46774903  0.64910306     0.27500
H1013       H  0.48774022  0.51257451  0.62357487     0.13200
N1014       N  0.43745739  0.47020061  0.60926561    -0.82500
H1015       H  0.47788245  0.42704614  0.67118483     0.18100
N1016       N  0.52916853  0.46520460  0.65181973    -0.81100
H1017       H  0.43530119  0.48342175  0.63011678     0.33700
H1018       H  0.44273276  0.47866559  0.57615568     0.38200
H1019       H  0.52277477  0.44496246  0.65911884     0.33700
H1020       H  0.53841414  0.46989102  0.61929896     0.30400
H1021       H  0.53551508  0.55596927  0.55112922     0.33700
H1022       H  0.52619342  0.52325187  0.54829250     0.30400
H1023       H  0.60138918  0.53646398  0.71919781     0.38200
H1024       H  0.60712700  0.53056556  0.66518659     0.33700
C1025       C  0.62649331  0.61203539  0.60872536    -0.20000
C1026       C  0.62596791  0.63269524  0.58339881     0.36200
C1027       C  0.63073737  0.63527757  0.53570109    -0.26000
C1028       C  0.63207580  0.61557443  0.51071972     0.02600
C1029       C  0.63433103  0.59603522  0.53543991     0.27400
C1030       C  0.63302206  0.59558487  0.58359503    -0.25100
N1031       N  0.61824189  0.64966369  0.60395722    -0.82500
H1032       H  0.63037951  0.65125792  0.51740404     0.13200
C1033       C  0.62694521  0.61313394  0.45980511     0.02600
N1034       N  0.63575307  0.57523620  0.51193115    -0.81100
H1035       H  0.63350061  0.57957025  0.60151988     0.18100
C1036       C  0.64168365  0.60658497  0.43078929    -0.25900
C1037       C  0.63241838  0.59647429  0.38614841     0.34900
C1038       C  0.61044464  0.59739232  0.36589806    -0.19900
C1039       C  0.59825862  0.60759297  0.39418381    -0.25200
C1040       C  0.60492311  0.61376606  0.44080398     0.27500
H1041       H  0.65906863  0.60662789  0.44434017     0.13200
N1042       N  0.64390291  0.58297846  0.36473271    -0.82500
H1043       H  0.58116948  0.60808932  0.38088410     0.18100
N1044       N  0.58798200  0.61878509  0.46938519    -0.81100
H1045       H  0.64011201  0.56671199  0.38587838     0.33700
H1046       H  0.66530913  0.59697901  0.36208158     0.38200
H1047       H  0.57284735  0.61882135  0.45000441     0.33700
H1048       H  0.57747194  0.60236882  0.49258576     0.30400
H1049       H  0.63788818  0.56286028  0.53523729     0.33700
H1050       H  0.61688378  0.56235999  0.49516460     0.30400
H1051       H  0.63406940  0.67023897  0.59799769     0.38200
H1052       H  0.60037878  0.64578503  0.58765116     0.33700
C1053       C  0.63586359  0.60180533  0.69132743    -0.20000
C1054       C  0.62885211  0.59199726  0.73744944     0.36200
C1055       C  0.64460147  0.58424167  0.76112802    -0.26000
C1056       C  0.66750741  0.58648466  0.74023407     0.02600
C1057       C  0.67791598  0.60162853  0.69914052     0.27400
C1058       C  0.66258554  0.61011687  0.67600834    -0.25100
N1059       N  0.60400455  0.58664999  0.75833495    -0.82500
H1060       H  0.63704243  0.57368121  0.79384883     0.13200
C1061       C  0.67764128  0.56975696  0.75850906     0.02600
N1062       N  0.70346022  0.60737767  0.68027219    -0.81100
H1063       H  0.67105425  0.62167856  0.64449686     0.18100
C1064       C  0.67661187  0.54976688  0.73013981    -0.25900
C1065       C  0.68040998  0.52966236  0.74823884     0.36100
C1066       C  0.68537570  0.52960414  0.79589856    -0.19900
C1067       C  0.68843741  0.55094703  0.82330283    -0.25200
C1068       C  0.68469751  0.57097126  0.80512785     0.27500
H1069       H  0.67121493  0.54885577  0.69419121     0.13200
N1070       N  0.67849325  0.50906878  0.71853929    -0.82500
H1071       H  0.69295854  0.55160446  0.85960851     0.18100
N1072       N  0.68735998  0.59219021  0.83406632    -0.81100
H1073       H  0.67637736  0.51308271  0.68425717     0.33700
H1074       H  0.66028347  0.49032111  0.72697067     0.38200
H1075       H  0.69250446  0.59018368  0.86762050     0.33700
H1076       H  0.70392131  0.61102893  0.82150382     0.30400
H1077       H  0.70821894  0.61852716  0.64958154     0.33700
H1078       H  0.71915665  0.62003489  0.70359022     0.30400
H1079       H  0.59141993  0.56577950  0.76685618     0.38200
H1080       H  0.60939796  0.59791023  0.78883371     0.33700
C1081       C  0.57619196  0.00714585  0.66109100    -0.20000
C1082       C  0.57279204  0.02818263  0.64471893     0.36200
C1083       C  0.54750307  0.02555171  0.64995404    -0.26000
C1084       C  0.52533455  0.00294611  0.67272910     0.02600
C1085       C  0.52862068  0.98278599  0.69132633     0.27400
C1086       C  0.55360396  0.98492838  0.68545269    -0.25100
N1087       N  0.59483706  0.05213933  0.62174266    -0.82500
H1088       H  0.54513985  0.04130513  0.63573278     0.13200
C1089       C  0.49873075  0.00055803  0.67627456     0.02600
N1090       N  0.50683851  0.96045237  0.71766558    -0.81100
H1091       H  0.55517357  0.96944653  0.70244221     0.18100
C1092       C  0.47454949  0.97670819  0.66095039    -0.25900
C1093       C  0.44915172  0.97400341  0.66217200     0.36100
C1094       C  0.44795738  0.99720604  0.67394273    -0.19900
C1095       C  0.47213368  0.01959063  0.69493905    -0.25200
C1096       C  0.49721917  0.02161770  0.69534648     0.27500
H1097       H  0.47530670  0.95973879  0.64819705     0.13200
N1098       N  0.42545175  0.94733012  0.65117096    -0.82500
H1099       H  0.47221855  0.03599554  0.71193272     0.18100
N1100       N  0.52112374  0.04506486  0.71577669    -0.81100
H1101       H  0.41367698  0.93846893  0.68084415     0.33700
H1102       H  0.41370591  0.94824520  0.62522601     0.38200
H1103       H  0.52500321  0.06267996  0.69876439     0.33700
H1104       H  0.51650037  0.04619007  0.75009486     0.30400
H1105       H  0.51441473  0.96108255  0.75059777     0.33700
H1106       H  0.50162694  0.94206235  0.70216133     0.30400
H1107       H  0.59906929  0.06942177  0.63998540     0.38200
H1108       H  0.58805919  0.05315567  0.58892670     0.33700
C1109       C  0.62461601  0.01545358  0.36402070    -0.20000
C1110       C  0.61924888  0.99152283  0.38822509     0.36200
C1111       C  0.62421449  0.99267608  0.43575063    -0.26000
C1112       C  0.63409781  0.01678569  0.46057067     0.02600
C1113       C  0.64250665  0.04116976  0.43694137     0.27400
C1114       C  0.63737072  0.04019593  0.38962006    -0.25100
N1115       N  0.60642003  0.96522637  0.36658912    -0.82500
H1116       H  0.61754643  0.97380564  0.45419758     0.13200
C1117       C  0.62725372  0.01451809  0.51003620     0.02600
N1118       N  0.65401743  0.06646600  0.46189182    -0.81100
H1119       H  0.64076050  0.05859278  0.37397667     0.18100
C1120       C  0.64569754  0.01743566  0.54407582    -0.25900
C1121       C  0.63889662  0.01538585  0.59101958     0.36100
C1122       C  0.61357609  0.01222144  0.60488846    -0.19900
C1123       C  0.59493502  0.00799390  0.56917508    -0.25200
C1124       C  0.60137958  0.00900687  0.52268554     0.27500
H1125       H  0.66522248  0.02060569  0.53407389     0.13200
N1126       N  0.65773286  0.01547558  0.62306387    -0.82500
H1127       H  0.57424444  0.00225245  0.57663892     0.18100
N1128       N  0.58127679  0.00362793  0.48793543    -0.81100
H1129       H  0.64817130  0.99625213  0.63897746     0.33700
H1130       H  0.66389462  0.03058633  0.64786908     0.38200
H1131       H  0.56269522  0.99871004  0.50277100     0.33700
H1132       H  0.58879955  0.02175582  0.46915761     0.30400
H1133       H  0.65972443  0.08279249  0.43933535     0.33700
H1134       H  0.63860678  0.06462543  0.48317390     0.30400
H1135       H  0.61953093  0.95836109  0.37021624     0.38200
H1136       H  0.58793867  0.95130050  0.38378639     0.33700
C1137       C  0.53409660  0.85965764  0.80244954    -0.20000
C1138       C  0.56319430  0.87385062  0.80418937     0.36200
C1139       C  0.57955356  0.89847624  0.77886756    -0.26000
C1140       C  0.56725672  0.90937894  0.75319178     0.02600
C1141       C  0.53813160  0.89566248  0.75363661     0.27400
C1142       C  0.52197462  0.87072008  0.77725378    -0.25100
N1143       N  0.57593075  0.86304090  0.83089713    -0.82500
H1144       H  0.60183924  0.90895457  0.77864197     0.13200
C1145       C  0.58425363  0.93467868  0.72476400     0.02600
N1146       N  0.52505157  0.90736326  0.73052055    -0.81100
H1147       H  0.49966678  0.86022669  0.77721822     0.18100
C1148       C  0.57643865  0.93382182  0.67904837    -0.25900
C1149       C  0.58439506  0.95790032  0.65521448     0.36100
C1150       C  0.60229863  0.98402888  0.67633202    -0.19900
C1151       C  0.61547925  0.98439662  0.71750384    -0.25200
C1152       C  0.60537276  0.96010676  0.74337478     0.27500
H1153       H  0.56147547  0.91419393  0.66340069     0.13200
N1154       N  0.57196963  0.95535956  0.61138546    -0.82500
H1155       H  0.63191358  0.00367659  0.73187857     0.18100
N1156       N  0.61531958  0.96144147  0.78920829    -0.81100
H1157       H  0.57714660  0.94475893  0.58940340     0.33700
H1158       H  0.55048821  0.94366553  0.61546181     0.38200
H1159       H  0.63083300  0.98169342  0.79765882     0.33700
H1160       H  0.59893878  0.95541281  0.81191853     0.30400
H1161       H  0.50354705  0.89459953  0.73375812     0.33700
H1162       H  0.53122710  0.92571040  0.74725503     0.30400
H1163       H  0.57030636  0.84430611  0.81631088     0.38200
H1164       H  0.59747569  0.87601374  0.82859437     0.33700
C1165       C  0.53616495  0.67238848  0.79755798    -0.20000
C1166       C  0.53631058  0.67116853  0.74899300     0.36200
C1167       C  0.55350184  0.66459710  0.72708499    -0.26000
C1168       C  0.57098840  0.65977721  0.75239533     0.02600
C1169       C  0.57266790  0.66329540  0.80045642     0.27400
C1170       C  0.55527000  0.66958637  0.82255206    -0.25100
N1171       N  0.51829760  0.67550974  0.72207982    -0.82500
H1172       H  0.55231623  0.66187592  0.69010868     0.13200
C1173       C  0.58267261  0.64572928  0.72925971     0.02600
N1174       N  0.59114112  0.65931567  0.82677743    -0.81100
H1175       H  0.55580699  0.67108656  0.85971817     0.18100
C1176       C  0.61119158  0.65872116  0.72231154    -0.25900
C1177       C  0.62196420  0.64503228  0.70007638     0.36100
C1178       C  0.60361993  0.61775842  0.68293338    -0.19900
C1179       C  0.57509625  0.60477850  0.69364374    -0.25200
C1180       C  0.56464288  0.61833861  0.71571584     0.27500
H1181       H  0.62508543  0.67955384  0.73453170     0.13200
N1182       N  0.65144692  0.65841538  0.69654467    -0.82500
H1183       H  0.56019231  0.58333472  0.68720549     0.18100
N1184       N  0.53550096  0.60407669  0.72536300    -0.81100
H1185       H  0.66178683  0.67785292  0.71176178     0.33700
H1186       H  0.65709491  0.66162028  0.66193367     0.38200
H1187       H  0.52467238  0.58405296  0.71245323     0.33700
H1188       H  0.53299704  0.60231072  0.76109830     0.30400
H1189       H  0.59009151  0.66291264  0.86167657     0.33700
H1190       H  0.58436028  0.63865806  0.82396427     0.30400
H1191       H  0.52492470  0.69605588  0.72620898     0.38200
H1192       H  0.52031285  0.67294950  0.68706106     0.33700
C1193       C  0.62457996  0.03726643  0.68444002    -0.20000
C1194       C  0.61815754  0.04007296  0.73073696     0.36200
C1195       C  0.63043228  0.06611162  0.75060746    -0.26000
C1196       C  0.64865836  0.08997833  0.72577352     0.02600
C1197       C  0.65716432  0.08780666  0.68155313     0.27400
C1198       C  0.64539336  0.06174144  0.66178970    -0.25100
N1199       N  0.59733614  0.01677958  0.75672722    -0.82500
H1200       H  0.62404957  0.06776242  0.78479826     0.13200
C1201       C  0.65560400  0.11647784  0.74509258     0.02600
N1202       N  0.67685924  0.11156104  0.65489948    -0.81100
H1203       H  0.65102257  0.06147576  0.62655612     0.18100
C1204       C  0.67635244  0.12959542  0.77830737    -0.25900
C1205       C  0.68134372  0.15307352  0.80125167     0.36100
C1206       C  0.66543165  0.16391274  0.78996895    -0.19900
C1207       C  0.64539956  0.15126006  0.75517849    -0.25200
C1208       C  0.63999487  0.12736804  0.73320285     0.27500
H1209       H  0.68810170  0.12093497  0.78734564     0.13200
N1210       N  0.70245962  0.16576248  0.83593133    -0.82500
H1211       H  0.63308206  0.15933606  0.74645875     0.18100
N1212       N  0.61827591  0.11370417  0.69967564    -0.81100
H1213       H  0.71385289  0.15684481  0.83667206     0.33700
H1214       H  0.69253824  0.16125925  0.86781814     0.38200
H1215       H  0.60298138  0.09455407  0.71333603     0.33700
H1216       H  0.60896240  0.12449216  0.69439595     0.30400
H1217       H  0.66647966  0.11256683  0.62640078     0.33700
H1218       H  0.68475704  0.12975418  0.67330480     0.30400
H1219       H  0.60626077  0.01586634  0.78733834     0.38200
H1220       H  0.58181716  0.01990983  0.76532818     0.33700
C1221       C  0.01677219  0.44951892  0.64132558    -0.20000
C1222       C  0.04313689  0.47268440  0.62651751     0.36200
C1223       C  0.04802168  0.49906343  0.62586438    -0.26000
C1224       C  0.02780806  0.50328861  0.64041788     0.02600
C1225       C  0.00264989  0.48122575  0.65768758     0.27400
C1226       C  0.99746229  0.45495958  0.65846828    -0.25100
N1227       N  0.06504236  0.46959924  0.61265505    -0.82500
H1228       H  0.06764724  0.51644895  0.61353296     0.13200
C1229       C  0.03301195  0.53094087  0.63885580     0.02600
N1230       N  0.98242429  0.48559043  0.67569229    -0.81100
H1231       H  0.97834351  0.43933569  0.67450511     0.18100
C1232       C  0.01519588  0.53487938  0.61311956    -0.25900
C1233       C  0.01525855  0.55864043  0.61820571     0.36100
C1234       C  0.03348071  0.57920144  0.65032215    -0.19900
C1235       C  0.05440543  0.57670422  0.66977304    -0.25200
C1236       C  0.05368330  0.55244251  0.66581901     0.27500
H1237       H  0.99997135  0.51862754  0.59085428     0.13200
N1238       N  0.99540589  0.56087905  0.59296660    -0.82500
H1239       H  0.07130308  0.59323663  0.68897375     0.18100
N1240       N  0.07327096  0.54924303  0.69025541    -0.81100
H1241       H  0.99891709  0.56019570  0.55788295     0.33700
H1242       H  0.97563714  0.54383892  0.60083258     0.38200
H1243       H  0.08731264  0.56713369  0.70837532     0.33700
H1244       H  0.06234554  0.53374165  0.71485233     0.30400
H1245       H  0.96407579  0.47322313  0.65729793     0.33700
H1246       H  0.97862724  0.47909920  0.71003902     0.30400
H1247       H  0.05979834  0.45926334  0.58133548     0.38200
H1248       H  0.08335307  0.48873437  0.60667554     0.33700
C1249       C  0.00927699  0.38940303  0.36359763    -0.20000
C1250       C  0.03391395  0.39775076  0.38891702     0.36200
C1251       C  0.03233725  0.39052464  0.43537169    -0.26000
C1252       C  0.00710161  0.37647834  0.45847280     0.02600
C1253       C  0.98261342  0.36397041  0.43292328     0.27400
C1254       C  0.98390505  0.37003619  0.38577654    -0.25100
N1255       N  0.06092677  0.41567078  0.36955349    -0.82500
H1256       H  0.05129130  0.39979196  0.45512365     0.13200
C1257       C  0.00713154  0.38565643  0.50570390     0.02600
N1258       N  0.95644982  0.34816648  0.45630294    -0.81100
H1259       H  0.96448643  0.36233710  0.36887752     0.18100
C1260       C  0.00922802  0.41050713  0.50888736    -0.25900
C1261       C  0.01001405  0.42205999  0.55108547     0.36100
C1262       C  0.01008423  0.40907648  0.59307245    -0.19900
C1263       C  0.00593980  0.38284309  0.58903254    -0.25200
C1264       C  0.00496784  0.37124487  0.54616030     0.27500
H1265       H  0.00968130  0.42099574  0.47763369     0.13200
N1266       N  0.00871579  0.44584690  0.54985865    -0.82500
H1267       H  0.00399472  0.37144829  0.61992227     0.18100
N1268       N  0.00210361  0.34521084  0.54519988    -0.81100
H1269       H  0.02566105  0.46128283  0.53104498     0.33700
H1270       H  0.99083574  0.44090668  0.53223685     0.38200
H1271       H  0.98290726  0.33057299  0.55969868     0.33700
H1272       H  0.00179781  0.33894438  0.51151067     0.30400
H1273       H  0.94013423  0.34103687  0.43306614     0.33700
H1274       H  0.95478242  0.33077589  0.47019753     0.30400
H1275       H  0.07105890  0.40546939  0.37058030     0.38200
H1276       H  0.07210059  0.43311301  0.39024794     0.33700
C1277       C  0.16473863  0.49185529  0.78593042    -0.20000
C1278       C  0.14644031  0.46394081  0.79904433     0.36200
C1279       C  0.12051051  0.44770497  0.77726053    -0.26000
C1280       C  0.11262179  0.45881327  0.74278595     0.02600
C1281       C  0.13097124  0.48640576  0.72907378     0.27400
C1282       C  0.15690155  0.50255723  0.75045238    -0.25100
N1283       N  0.15402628  0.45227641  0.83478082    -0.82500
H1284       H  0.10620119  0.42650018  0.78770954     0.13200
C1285       C  0.08446989  0.44238171  0.72284732     0.02600
N1286       N  0.12264812  0.49818503  0.69471476    -0.81100
H1287       H  0.17060234  0.52395419  0.74056365     0.18100
C1288       C  0.06401760  0.44490624  0.74195298    -0.25900
C1289       C  0.03929279  0.43568721  0.71850337     0.36100
C1290       C  0.03427661  0.42321199  0.67412106    -0.19900
C1291       C  0.05447094  0.41880846  0.65736999    -0.25200
C1292       C  0.07927298  0.42817173  0.68127350     0.27500
H1293       H  0.06803140  0.45582046  0.77413004     0.13200
N1294       N  0.02017818  0.44092395  0.73875905    -0.82500
H1295       H  0.05272586  0.41041926  0.62372431     0.18100
N1296       N  0.09975302  0.42428929  0.66251493    -0.81100
H1297       H  0.03038379  0.46212440  0.74376116     0.33700
H1298       H  0.01437771  0.43138090  0.77103421     0.38200
H1299       H  0.09272157  0.41307417  0.63194715     0.33700
H1300       H  0.11717113  0.44360813  0.65395707     0.30400
H1301       H  0.13815391  0.51891968  0.68937288     0.33700
H1302       H  0.12031217  0.48817683  0.66364076     0.30400
H1303       H  0.17097464  0.45223266  0.82291852     0.38200
H1304       H  0.13811815  0.43174150  0.84074420     0.33700
C1305       C  0.85728661  0.35642265  0.78394112    -0.20000
C1306       C  0.86659403  0.33872958  0.78842362     0.36200
C1307       C  0.89004053  0.34450117  0.76363331    -0.26000
C1308       C  0.90488704  0.36805283  0.73581956     0.02600
C1309       C  0.89602280  0.38618284  0.73263179     0.27400
C1310       C  0.87198704  0.37978929  0.75578712    -0.25100
N1311       N  0.85223702  0.31497579  0.81792465    -0.82500
H1312       H  0.89670782  0.33052526  0.76588503     0.13200
C1313       C  0.92965458  0.37388270  0.70985414     0.02600
N1314       N  0.91181227  0.41134038  0.70661967    -0.81100
H1315       H  0.86527526  0.39372940  0.75319242     0.18100
C1316       C  0.93134017  0.37993266  0.66302485    -0.25900
C1317       C  0.95651749  0.39266087  0.63956896     0.36100
C1318       C  0.98091929  0.39860714  0.66278691    -0.19900
C1319       C  0.97706289  0.38617226  0.70644306    -0.25200
C1320       C  0.95233912  0.37565900  0.73137739     0.27500
H1321       H  0.91345540  0.37700447  0.64537445     0.13200
N1322       N  0.95737382  0.40162723  0.59342774    -0.82500
H1323       H  0.99387506  0.38668391  0.72332206     0.18100
N1324       N  0.95082597  0.36832611  0.77905797    -0.81100
H1325       H  0.95044849  0.41474856  0.59336681     0.33700
H1326       H  0.94373017  0.38440518  0.57356199     0.38200
H1327       H  0.96931718  0.37093292  0.78969291     0.33700
H1328       H  0.94865724  0.38210588  0.79829010     0.30400
H1329       H  0.90249973  0.42233125  0.70774205     0.33700
H1330       H  0.93108336  0.42362461  0.72251601     0.30400
H1331       H  0.83255322  0.30154668  0.80404818     0.38200
H1332       H  0.86208037  0.30448802  0.81800567     0.33700
loop_ 
_geom_bond_atom_site_label_1 
_geom_bond_atom_site_label_2 
_geom_bond_distance 
_geom_bond_site_symmetry_2 
_ccdc_geom_bond_type 
C1         C1221   1.563       .  S
C1         C1262   1.568       .  S
C1         C1290   1.577       .  S
C1         C1318   1.572   1_455  S
In2           O4   2.235       .  S
In2           O5   2.267       .  S
In2          O13   2.274       .  S
In2           O7   2.237       .  S
In2           O9   2.249       .  S
In2          O10   2.261       .  S
In2          O11   2.241       .  S
In2          O14   2.247       .  S
C3            O9   1.260       .  A
C3           O11   1.259       .  A
C3          C164   1.460   1_556  S
O4           C12   1.258       .  A
O5           C12   1.261       .  A
C6           O13   1.262       .  A
C6            O7   1.255       .  A
C6         C1206   1.487       .  S
C8           O10   1.262       .  A
C8           O14   1.260       .  A
C8          C132   1.469       .  S
C12          C21   1.465       .  S
In15         O17   2.236       .  S
In15         O18   2.265       .  S
In15         O26   2.253       .  S
In15         O20   2.246       .  S
In15         O22   2.244       .  S
In15         O23   2.271       .  S
In15         O24   2.240       .  S
In15         O27   2.235       .  S
C16          O22   1.260       .  A
C16          O24   1.260       .  A
C16         C177   1.459   1_556  S
O17          C25   1.260       .  A
O18          C25   1.264       .  A
C19          O26   1.260       .  A
C19          O20   1.256       .  A
C19        C1305   1.479       .  S
C21          O23   1.261       .  A
C21          O27   1.256       .  A
C25         C142   1.469       .  S
In28         O30   2.273       .  S
In28         O31   2.246       .  S
In28         O39   2.251       .  S
In28         O33   2.268       .  S
In28         O35   2.257       .  S
In28         O36   2.248       .  S
In28         O37   2.261       .  S
In28         O40   2.243       .  S
C29          O35   1.259       .  A
C29          O37   1.259       .  A
C29          C47   1.470       .  S
O30          C38   1.261       .  A
O31          C38   1.258       .  A
C32          O39   1.257       .  A
C32          O33   1.263       .  A
C32        C1165   1.493       .  S
C34          O36   1.259       .  A
C34          O40   1.260       .  A
C34         C191   1.460   1_556  S
C38          C93   1.470       .  S
In41         O43   2.249       .  S
In41         O44   2.275       .  S
In41         O52   2.238       .  S
In41         O46   2.257       .  S
In41         O48   2.243       .  S
In41         O49   2.263       .  S
In41         O50   2.238       .  S
In41         O53   2.257       .  S
C42          O48   1.260       .  A
C42          O50   1.259       .  A
C42         C204   1.458   1_556  S
O43          C51   1.259       .  A
O44          C51   1.262       .  A
C45          O52   1.261       .  A
C45          O46   1.257       .  A
C45        C1137   1.474       .  S
C47          O49   1.259       .  A
C47          O53   1.258       .  A
C51          C75   1.473       .  S
C54        C1081   1.573       .  S
C54        C1122   1.573       .  S
C54        C1150   1.564   1_545  S
C54        C1193   1.571       .  S
C55         C997   1.575       .  S
C55        C1025   1.572       .  S
C55        C1053   1.567       .  S
C55        C1178   1.577       .  S
In56         O58   2.241       .  S
In56         O59   2.272       .  S
In56         O67   2.266       .  S
In56         O61   2.228       .  S
In56         O63   2.239       .  S
In56         O64   2.258       .  S
In56         O65   2.250       .  S
In56         O68   2.237       .  S
C57          O63   1.258       .  A
C57          O65   1.260       .  A
C57         C299   1.460   1_556  S
O58          C66   1.258       .  A
O59          C66   1.261       .  A
C60          O67   1.263       .  A
C60          O61   1.257       .  A
C60         C969   1.483       .  S
C62          O64   1.260       .  A
C62          O68   1.258       .  A
C62          C79   1.463       .  S
C66         C102   1.469       .  S
In69         O71   2.239       .  S
In69         O72   2.262       .  S
In69         O80   2.252       .  S
In69         O74   2.258       .  S
In69         O76   2.254       .  S
In69         O77   2.269       .  S
In69         O78   2.238       .  S
In69         O81   2.242       .  S
C70          O76   1.260       .  A
C70          O78   1.258       .  A
C70         C312   1.460   1_556  S
O71          C79   1.257       .  A
O72          C79   1.260       .  A
C73          O80   1.261       .  A
C73          O74   1.257       .  A
C73         C941   1.487       .  S
C75          O77   1.264       .  A
C75          O81   1.261       .  A
C82         C885   1.570       .  S
C82         C926   1.577   1_565  S
C82         C954   1.571       .  S
C82        C1094   1.583       .  S
In83         O85   2.244       .  S
In83         O86   2.272       .  S
In83         O94   2.264       .  S
In83         O88   2.246       .  S
In83         O90   2.242       .  S
In83         O91   2.269       .  S
In83         O92   2.246       .  S
In83         O95   2.270       .  S
C84          O90   1.259       .  A
C84          O92   1.260       .  A
C84         C251   1.459   1_556  S
O85          C93   1.258       .  A
O86          C93   1.262       .  A
C87          O94   1.263       .  A
C87          O88   1.257       .  A
C87         C857   1.491       .  S
C89          O91   1.259       .  A
C89          O95   1.259       .  A
C89         C106   1.476       .  S
In96         O98   2.265       .  S
In96         O99   2.268       .  S
In96        O107   2.263       .  S
In96        O101   2.249       .  S
In96        O103   2.254       .  S
In96        O104   2.273       .  S
In96        O105   2.244       .  S
In96        O108   2.239       .  S
C97         O103   1.261       .  A
C97         O105   1.259       .  A
C97         C259   1.464   1_556  S
O98         C106   1.259       .  A
O99         C106   1.260       .  A
C100        O107   1.262       .  A
C100        O101   1.258       .  A
C100       C1277   1.488       .  S
C102        O104   1.263       .  A
C102        O108   1.258       .  A
In109       O111   2.279       .  S
In109       O112   2.259       .  S
In109       O120   2.247       .  S
In109       O114   2.277       .  S
In109       O116   2.256       .  S
In109       O117   2.235       .  S
In109       O118   2.259       .  S
In109       O121   2.259       .  S
C110        O116   1.262       .  A
C110        O118   1.262       .  A
C110        C128   1.474       .  S
O111        C119   1.260       .  A
O112        C119   1.257       .  A
C113        O120   1.258       .  A
C113        O114   1.261       .  A
C113        C842   1.491       .  S
C115        O117   1.258       .  A
C115        O121   1.261       .  A
C115        C272   1.461   1_556  S
C119        C155   1.475       .  S
In122       O124   2.244       .  S
In122       O125   2.259       .  S
In122       O133   2.257       .  S
In122       O127   2.264       .  S
In122       O129   2.253       .  S
In122       O130   2.269       .  S
In122       O131   2.240       .  S
In122       O134   2.264       .  S
C123        O129   1.261       .  A
C123        O131   1.259       .  A
C123        C285   1.461   1_556  S
O124        C132   1.261       .  A
O125        C132   1.264       .  A
C126        O133   1.259       .  A
C126        O127   1.259       .  A
C126        C913   1.482       .  S
C128        O130   1.259       .  A
C128        O134   1.258       .  A
C135        C814   1.567       .  S
C135        C829   1.574       .  S
C135        C870   1.577       .  S
C135       C1010   1.569       .  S
In136       O138   2.250       .  S
In136       O139   2.260       .  S
In136       O147   2.268       .  S
In136       O141   2.241       .  S
In136       O143   2.251       .  S
In136       O144   2.270       .  S
In136       O145   2.237       .  S
In136       O148   2.243       .  S
C137        O143   1.260       .  A
C137        O145   1.259       .  A
C137        C219   1.460   1_556  S
O138        C146   1.259       .  A
O139        C146   1.260       .  A
C140        O147   1.262       .  A
C140        O141   1.257       .  A
C140        C773   1.489       .  S
C142        O144   1.261       .  A
C142        O148   1.258       .  A
C146        C150   1.468       .  S
In149       O151   2.246       .  S
In149       O152   2.250       .  S
In149       O160   2.234       .  S
In149       O154   2.280       .  S
In149       O156   2.249       .  S
In149       O157   2.257       .  S
In149       O158   2.263       .  S
In149       O161   2.274       .  S
C150        O156   1.258       .  A
C150        O158   1.261       .  A
O151        C159   1.260       .  A
O152        C159   1.260       .  A
C153        O160   1.257       .  A
C153        O154   1.263       .  A
C153       C1066   1.492       .  S
C155        O157   1.259       .  A
C155        O161   1.261       .  A
C159        C232   1.462   1_556  S
C162        C745   1.567       .  S
C162        C786   1.570       .  S
C162        C982   1.560       .  S
C162       C1234   1.569       .  S
In163       O165   2.240       .  S
In163       O166   2.285       .  S
In163       O174   2.276       .  S
In163       O168   2.223       .  S
In163       O170   2.247       .  S
In163       O171   2.252       .  S
In163       O172   2.243       .  S
In163       O175   2.249       .  S
C164        O170   1.260       .  A
C164        O172   1.260       .  A
O165        C173   1.256       .  A
O166        C173   1.261       .  A
C167        O174   1.262       .  A
C167        O168   1.257       .  A
C167        C717   1.487       .  S
C169        O171   1.262       .  A
C169        O175   1.260       .  A
C169        C186   1.466       .  S
C173        C290   1.470       .  S
In176       O178   2.254       .  S
In176       O179   2.253       .  S
In176       O187   2.260       .  S
In176       O181   2.256       .  S
In176       O183   2.248       .  S
In176       O184   2.264       .  S
In176       O185   2.242       .  S
In176       O188   2.242       .  S
C177        O183   1.261       .  A
C177        O185   1.259       .  A
O178        C186   1.260       .  A
O179        C186   1.259       .  A
C180        O187   1.262       .  A
C180        O181   1.258       .  A
C180        C702   1.492       .  S
C182        O184   1.261       .  A
C182        O188   1.259       .  A
C182        C228   1.467       .  S
C189        C605   1.565       .  S
C189        C646   1.574       .  S
C189        C661   1.570       .  S
C189       C1038   1.578       .  S
In190       O192   2.245       .  S
In190       O193   2.268       .  S
In190       O201   2.267       .  S
In190       O195   2.237       .  S
In190       O197   2.242       .  S
In190       O198   2.259       .  S
In190       O199   2.246       .  S
In190       O202   2.256       .  S
C191        O197   1.260       .  A
C191        O199   1.260       .  A
O192        C200   1.258       .  A
O193        C200   1.262       .  A
C194        O201   1.262       .  A
C194        O195   1.258       .  A
C194        C633   1.490       .  S
C196        O198   1.259       .  A
C196        O202   1.258       .  A
C196        C213   1.468       .  S
C200        C255   1.469       .  S
In203       O205   2.257       .  S
In203       O206   2.255       .  S
In203       O214   2.258       .  S
In203       O208   2.246       .  S
In203       O210   2.248       .  S
In203       O211   2.266       .  S
In203       O212   2.239       .  S
In203       O215   2.242       .  S
C204        O210   1.260       .  A
C204        O212   1.258       .  A
O205        C213   1.259       .  A
O206        C213   1.258       .  A
C207        O214   1.262       .  A
C207        O208   1.258       .  A
C207        C577   1.488       .  S
C209        O211   1.262       .  A
C209        O215   1.259       .  A
C209        C321   1.468       .  S
C216        C549   1.569       .  S
C216        C590   1.565   1_545  S
C216        C730   1.563       .  S
C216       C1109   1.568       .  S
C217        C493   1.570       .  S
C217        C521   1.570       .  S
C217        C689   1.569   1_455  S
C217       C1249   1.568       .  S
In218       O220   2.240       .  S
In218       O221   2.267       .  S
In218       O229   2.264       .  S
In218       O223   2.245       .  S
In218       O225   2.253       .  S
In218       O226   2.261       .  S
In218       O227   2.236       .  S
In218       O230   2.265       .  S
C219        O225   1.261       .  A
C219        O227   1.258       .  A
O220        C228   1.259       .  A
O221        C228   1.263       .  A
C222        O229   1.263       .  A
C222        O223   1.259       .  A
C222        C478   1.493       .  S
C224        O226   1.259       .  A
C224        O230   1.260       .  A
C224        C241   1.473       .  S
In231       O233   2.266       .  S
In231       O234   2.262       .  S
In231       O242   2.269       .  S
In231       O236   2.239       .  S
In231       O238   2.245       .  S
In231       O239   2.266       .  S
In231       O240   2.250       .  S
In231       O243   2.249       .  S
C232        O238   1.259       .  A
C232        O240   1.260       .  A
O233        C241   1.260       .  A
O234        C241   1.259       .  A
C235        O242   1.263       .  A
C235        O236   1.257       .  A
C235        C674   1.490       .  S
C237        O239   1.261       .  A
C237        O243   1.257       .  A
C237        C281   1.468       .  S
C244        C450   1.576       .  S
C244        C465   1.574   1_455  S
C244        C506   1.571       .  S
C244        C758   1.575       .  S
In245       O247   2.263       .  S
In245       O248   2.245       .  S
In245       O256   2.240       .  S
In245       O250   2.262       .  S
In245       O252   2.254       .  S
In245       O253   2.242       .  S
In245       O254   2.256       .  S
In245       O257   2.242       .  S
C246        O252   1.258       .  A
C246        O254   1.259       .  A
C246        C264   1.467       .  S
O247        C255   1.262       .  A
O248        C255   1.260       .  A
C249        O256   1.256       .  A
C249        O250   1.262       .  A
C249        C409   1.485       .  S
C251        O253   1.259       .  A
C251        O257   1.260       .  A
In258       O260   2.255       .  S
In258       O261   2.267       .  S
In258       O269   2.270       .  S
In258       O263   2.239       .  S
In258       O265   2.255       .  S
In258       O266   2.252       .  S
In258       O267   2.248       .  S
In258       O270   2.259       .  S
C259        O265   1.260       .  A
C259        O267   1.259       .  A
O260        C268   1.259       .  A
O261        C268   1.259       .  A
C262        O269   1.262       .  A
C262        O263   1.257       .  A
C262        C534   1.491       .  S
C264        O266   1.258       .  A
C264        O270   1.260       .  A
C268        C304   1.471       .  S
In271       O273   2.248       .  S
In271       O274   2.257       .  S
In271       O282   2.255       .  S
In271       O276   2.244       .  S
In271       O278   2.255       .  S
In271       O279   2.258       .  S
In271       O280   2.235       .  S
In271       O283   2.253       .  S
C272        O278   1.260       .  A
C272        O280   1.259       .  A
O273        C281   1.261       .  A
O274        C281   1.262       .  A
C275        O282   1.261       .  A
C275        O276   1.257       .  A
C275        C394   1.477       .  S
C277        O279   1.258       .  A
C277        O283   1.258       .  A
C277        C294   1.466       .  S
In284       O286   2.251       .  S
In284       O287   2.257       .  S
In284       O295   2.265       .  S
In284       O289   2.240       .  S
In284       O291   2.248       .  S
In284       O292   2.279       .  S
In284       O293   2.238       .  S
In284       O296   2.236       .  S
C285        O291   1.260       .  A
C285        O293   1.260       .  A
O286        C294   1.259       .  A
O287        C294   1.260       .  A
C288        O295   1.263       .  A
C288        O289   1.256       .  A
C288        C353   1.488       .  S
C290        O292   1.262       .  A
C290        O296   1.258       .  A
C297        C381   1.568       .  S
C297        C422   1.563       .  S
C297        C618   1.596       .  S
C297        C801   1.586       .  S
In298       O300   2.253       .  S
In298       O301   2.271       .  S
In298       O309   2.277       .  S
In298       O303   2.238       .  S
In298       O305   2.240       .  S
In298       O306   2.268       .  S
In298       O307   2.247       .  S
In298       O310   2.249       .  S
C299        O305   1.260       .  A
C299        O307   1.259       .  A
O300        C308   1.258       .  A
O301        C308   1.260       .  A
C302        O309   1.264       .  A
C302        O303   1.256       .  A
C302        C437   1.492       .  S
C304        O306   1.262       .  A
C304        O310   1.258       .  A
C308        C317   1.471       .  S
In311       O313   2.242       .  S
In311       O314   2.266       .  S
In311       O322   2.259       .  S
In311       O316   2.249       .  S
In311       O318   2.252       .  S
In311       O319   2.267       .  S
In311       O320   2.236       .  S
In311       O323   2.252       .  S
C312        O318   1.261       .  A
C312        O320   1.259       .  A
O313        C321   1.259       .  A
O314        C321   1.262       .  A
C315        O322   1.261       .  A
C315        O316   1.258       .  A
C315        C338   1.484       .  S
C317        O319   1.261       .  A
C317        O323   1.259       .  A
C324        C325   1.576   1_545  S
C324        C366   1.568       .  S
C324        C562   1.568       .  S
C324        C898   1.574       .  S
C325        C326   1.430       .  A
C325        C330   1.421       .  A
C326        C327   1.409       .  A
C326        N331   1.429       .  S
C327        C328   1.402       .  A
C327        H332   1.083       .  S
C328        C333   1.494       .  S
C328        C329   1.405       .  A
C329        C330   1.401       .  A
C329        N334   1.438       .  S
C330        H335   1.083       .  S
N331        H351   1.046       .  S
N331        H352   1.045       .  S
C333        C336   1.407       .  A
C333        C340   1.411       .  A
N334        H349   1.045       .  S
N334        H350   1.046       .  S
C336        C337   1.406       .  A
C336        H341   1.084       .  S
C337        C338   1.412       .  A
C337        N342   1.438       .  S
C338        C339   1.406       .  A
C339        C340   1.408       .  A
C339        H343   1.083       .  S
C340        N344   1.437       .  S
N342        H345   1.046       .  S
N342        H346   1.045       .  S
N344        H347   1.046       .  S
N344        H348   1.045       .  S
C353        C354   1.420       .  A
C353        C358   1.405       .  A
C354        C355   1.407       .  A
C354        N359   1.438       .  S
C355        C356   1.399       .  A
C355        H360   1.084       .  S
C356        C361   1.479       .  S
C356        C357   1.408       .  A
C357        C358   1.405       .  A
C357        N362   1.437       .  S
C358        H363   1.083       .  S
N359        H379   1.046       .  S
N359        H380   1.046       .  S
C361        C364   1.390       .  A
C361        C368   1.411       .  A
N362        H377   1.046       .  S
N362        H378   1.045       .  S
C364        C365   1.393       .  A
C364        H369   1.085       .  S
C365        C366   1.437       .  A
C365        N370   1.434       .  S
C366        C367   1.419       .  A
C367        C368   1.409       .  A
C367        H371   1.084       .  S
C368        N372   1.437       .  S
N370        H373   1.046       .  S
N370        H374   1.046       .  S
N372        H375   1.046       .  S
N372        H376   1.043       .  S
C381        C382   1.444       .  A
C381        C386   1.419       .  A
C382        C383   1.398       .  A
C382        N387   1.441       .  S
C383        C384   1.396       .  A
C383        H388   1.084       .  S
C384        C389   1.492       .  S
C384        C385   1.408       .  A
C385        C386   1.409       .  A
C385        N390   1.438       .  S
C386        H391   1.080       .  S
N387        H407   1.038       .  S
N387        H408   1.046       .  S
C389        C392   1.405       .  A
C389        C396   1.413       .  A
N390        H405   1.045       .  S
N390        H406   1.046       .  S
C392        C393   1.411       .  A
C392        H397   1.083       .  S
C393        C394   1.414       .  A
C393        N398   1.437       .  S
C394        C395   1.397       .  A
C395        C396   1.397       .  A
C395        H399   1.084       .  S
C396        N400   1.431       .  S
N398        H401   1.046       .  S
N398        H402   1.045       .  S
N400        H403   1.046       .  S
N400        H404   1.045       .  S
C409        C410   1.419       .  A
C409        C414   1.405       .  A
C410        C411   1.407       .  A
C410        N415   1.437       .  S
C411        C412   1.398       .  A
C411        H416   1.084       .  S
C412        C417   1.478       .  S
C412        C413   1.409       .  A
C413        C414   1.404       .  A
C413        N418   1.439       .  S
C414        H419   1.084       .  S
N415        H435   1.045       .  S
N415        H436   1.046       .  S
C417        C420   1.396       .  A
C417        C424   1.405       .  A
N418        H433   1.046       .  S
N418        H434   1.046       .  S
C420        C421   1.399       .  A
C420        H425   1.084       .  S
C421        C422   1.421       .  A
C421        N426   1.430       .  S
C422        C423   1.416       .  A
C423        C424   1.407       .  A
C423        H427   1.082       .  S
C424        N428   1.437       .  S
N426        H429   1.046       .  S
N426        H430   1.045       .  S
N428        H431   1.046       .  S
N428        H432   1.045       .  S
C437        C438   1.420       .  A
C437        C442   1.405       .  A
C438        C439   1.408       .  A
C438        N443   1.438       .  S
C439        C440   1.399       .  A
C439        H444   1.084       .  S
C440        C445   1.486       .  S
C440        C441   1.411       .  A
C441        C442   1.408       .  A
C441        N446   1.438       .  S
C442        H447   1.083       .  S
N443        H463   1.045       .  S
N443        H464   1.046       .  S
C445        C448   1.393       .  A
C445        C452   1.406       .  A
N446        H461   1.046       .  S
N446        H462   1.046       .  S
C448        C449   1.398       .  A
C448        H453   1.085       .  S
C449        C450   1.433       .  A
C449        N454   1.430       .  S
C450        C451   1.421       .  A
C451        C452   1.412       .  A
C451        H455   1.083       .  S
C452        N456   1.437       .  S
N454        H457   1.044       .  S
N454        H458   1.046       .  S
N456        H459   1.045       .  S
N456        H460   1.046       .  S
C465        C466   1.426       .  A
C465        C470   1.419       .  A
C466        C467   1.404       .  A
C466        N471   1.432   1_655  S
C467        C468   1.399       .  A
C467        H472   1.084       .  S
C468        C473   1.490       .  S
C468        C469   1.406       .  A
C469        C470   1.409       .  A
C469        N474   1.437       .  S
C470        H475   1.079       .  S
N471        H491   1.045       .  S
N471        H492   1.046   1_455  S
C473        C476   1.404       .  A
C473        C480   1.408       .  A
N474        H489   1.045       .  S
N474        H490   1.046       .  S
C476        C477   1.409       .  A
C476        H481   1.084       .  S
C477        C478   1.416       .  A
C477        N482   1.437       .  S
C478        C479   1.409       .  A
C479        C480   1.408       .  A
C479        H483   1.083       .  S
C480        N484   1.438       .  S
N482        H485   1.046       .  S
N482        H486   1.045       .  S
N484        H487   1.045       .  S
N484        H488   1.046       .  S
C493        C494   1.428   1_455  A
C493        C498   1.410       .  A
C494        C495   1.403       .  A
C494        N499   1.431       .  S
C495        C496   1.401   1_655  A
C495        H500   1.084       .  S
C496        C501   1.503       .  S
C496        C497   1.420       .  A
C497        C498   1.397       .  A
C497        N502   1.431       .  S
C498        H503   1.078       .  S
N499        H519   1.046       .  S
N499        H520   1.046       .  S
C501        C504   1.403       .  A
C501        C508   1.416   1_455  A
N502        H517   1.046       .  S
N502        H518   1.040       .  S
C504        C505   1.407       .  A
C504        H509   1.079       .  S
C505        C506   1.429       .  A
C505        N510   1.432       .  S
C506        C507   1.410   1_455  A
C507        C508   1.396       .  A
C507        H511   1.076       .  S
C508        N512   1.433       .  S
N510        H513   1.046       .  S
N510        H514   1.045       .  S
N512        H515   1.046       .  S
N512        H516   1.046       .  S
C521        C522   1.423       .  A
C521        C526   1.416       .  A
C522        C523   1.411       .  A
C522        N527   1.432       .  S
C523        C524   1.403       .  A
C523        H528   1.084       .  S
C524        C529   1.487       .  S
C524        C525   1.412       .  A
C525        C526   1.397       .  A
C525        N530   1.441       .  S
C526        H531   1.076       .  S
N527        H547   1.045       .  S
N527        H548   1.046       .  S
C529        C532   1.398       .  A
C529        C536   1.413       .  A
N530        H545   1.046       .  S
N530        H546   1.043       .  S
C532        C533   1.407       .  A
C532        H537   1.084       .  S
C533        C534   1.419       .  A
C533        N538   1.438       .  S
C534        C535   1.406       .  A
C535        C536   1.408       .  A
C535        H539   1.083       .  S
C536        N540   1.439       .  S
N538        H541   1.045       .  S
N538        H542   1.046       .  S
N540        H543   1.046       .  S
N540        H544   1.044       .  S
C549        C550   1.428       .  A
C549        C554   1.418   1_545  A
C550        C551   1.398       .  A
C550        N555   1.433       .  S
C551        C552   1.395       .  A
C551        H556   1.084       .  S
C552        C557   1.473       .  S
C552        C553   1.402   1_545  A
C553        C554   1.405       .  A
C553        N558   1.437       .  S
C554        H559   1.079       .  S
N555        H575   1.045       .  S
N555        H576   1.046       .  S
C557        C560   1.394       .  A
C557        C564   1.402       .  A
N558        H573   1.044       .  S
N558        H574   1.046       .  S
C560        C561   1.396       .  A
C560        H565   1.085       .  S
C561        C562   1.429       .  A
C561        N566   1.432       .  S
C562        C563   1.419       .  A
C563        C564   1.407       .  A
C563        H567   1.074       .  S
C564        N568   1.437       .  S
N566        H569   1.046   1_545  S
N566        H570   1.045       .  S
N568        H571   1.045       .  S
N568        H572   1.045       .  S
C577        C578   1.413       .  A
C577        C582   1.410       .  A
C578        C579   1.405       .  A
C578        N583   1.437       .  S
C579        C580   1.404       .  A
C579        H584   1.084       .  S
C580        C585   1.485       .  S
C580        C581   1.408       .  A
C581        C582   1.408       .  A
C581        N586   1.437       .  S
C582        H587   1.083       .  S
N583        H603   1.044       .  S
N583        H604   1.047       .  S
C585        C588   1.402       .  A
C585        C592   1.404       .  A
N586        H601   1.046       .  S
N586        H602   1.045       .  S
C588        C589   1.411       .  A
C588        H593   1.083       .  S
C589        C590   1.423       .  A
C589        N594   1.432   1_565  S
C590        C591   1.416       .  A
C591        C592   1.398       .  A
C591        H595   1.078       .  S
C592        N596   1.439       .  S
N594        H597   1.046   1_545  S
N594        H598   1.045       .  S
N596        H599   1.047       .  S
N596        H600   1.045       .  S
C605        C606   1.428       .  A
C605        C610   1.417       .  A
C606        C607   1.397       .  A
C606        N611   1.432       .  S
C607        C608   1.397       .  A
C607        H612   1.083       .  S
C608        C613   1.483       .  S
C608        C609   1.408       .  A
C609        C610   1.406       .  A
C609        N614   1.437       .  S
C610        H615   1.083       .  S
N611        H631   1.045       .  S
N611        H632   1.046       .  S
C613        C616   1.394       .  A
C613        C620   1.401       .  A
N614        H629   1.046       .  S
N614        H630   1.045       .  S
C616        C617   1.400       .  A
C616        H621   1.085       .  S
C617        C618   1.437       .  A
C617        N622   1.430       .  S
C618        C619   1.420       .  A
C619        C620   1.404       .  A
C619        H623   1.068       .  S
C620        N624   1.438       .  S
N622        H625   1.045       .  S
N622        H626   1.045       .  S
N624        H627   1.045       .  S
N624        H628   1.046       .  S
C633        C634   1.416       .  A
C633        C638   1.408       .  A
C634        C635   1.410       .  A
C634        N639   1.438       .  S
C635        C636   1.404       .  A
C635        H640   1.084       .  S
C636        C641   1.485       .  S
C636        C637   1.406       .  A
C637        C638   1.405       .  A
C637        N642   1.437       .  S
C638        H643   1.083       .  S
N639        H659   1.045       .  S
N639        H660   1.046       .  S
C641        C644   1.395       .  A
C641        C648   1.411       .  A
N642        H657   1.045       .  S
N642        H658   1.046       .  S
C644        C645   1.396       .  A
C644        H649   1.085       .  S
C645        C646   1.437       .  A
C645        N650   1.430       .  S
C646        C647   1.419       .  A
C647        C648   1.407       .  A
C647        H651   1.079       .  S
C648        N652   1.438       .  S
N650        H653   1.039       .  S
N650        H654   1.044       .  S
N652        H655   1.045       .  S
N652        H656   1.044       .  S
C661        C662   1.435       .  A
C661        C666   1.419       .  A
C662        C663   1.398       .  A
C662        N667   1.431       .  S
C663        C664   1.394       .  A
C663        H668   1.085       .  S
C664        C669   1.487       .  S
C664        C665   1.414       .  A
C665        C666   1.408       .  A
C665        N670   1.438       .  S
C666        H671   1.084       .  S
N667        H687   1.047       .  S
N667        H688   1.046       .  S
C669        C672   1.401       .  A
C669        C676   1.411       .  A
N670        H685   1.046       .  S
N670        H686   1.043       .  S
C672        C673   1.407       .  A
C672        H677   1.084       .  S
C673        C674   1.419       .  A
C673        N678   1.438       .  S
C674        C675   1.405       .  A
C675        C676   1.406       .  A
C675        H679   1.083       .  S
C676        N680   1.438       .  S
N678        H681   1.046       .  S
N678        H682   1.046       .  S
N680        H683   1.046       .  S
N680        H684   1.045       .  S
C689        C690   1.427       .  A
C689        C694   1.416       .  A
C690        C691   1.398       .  A
C690        N695   1.429       .  S
C691        C692   1.392       .  A
C691        H696   1.085       .  S
C692        C697   1.487       .  S
C692        C693   1.409       .  A
C693        C694   1.417       .  A
C693        N698   1.436       .  S
C694        H699   1.081       .  S
N695        H715   1.046   1_655  S
N695        H716   1.043       .  S
C697        C700   1.400       .  A
C697        C704   1.411       .  A
N698        H713   1.045       .  S
N698        H714   1.045       .  S
C700        C701   1.410       .  A
C700        H705   1.084       .  S
C701        C702   1.419       .  A
C701        N706   1.437       .  S
C702        C703   1.405       .  A
C703        C704   1.406       .  A
C703        H707   1.083       .  S
C704        N708   1.438       .  S
N706        H709   1.045       .  S
N706        H710   1.046       .  S
N708        H711   1.046       .  S
N708        H712   1.045       .  S
C717        C718   1.416       .  A
C717        C722   1.407       .  A
C718        C719   1.411       .  A
C718        N723   1.437       .  S
C719        C720   1.405       .  A
C719        H724   1.084       .  S
C720        C725   1.483       .  S
C720        C721   1.407       .  A
C721        C722   1.401       .  A
C721        N726   1.438       .  S
C722        H727   1.083       .  S
N723        H743   1.045       .  S
N723        H744   1.046       .  S
C725        C728   1.394       .  A
C725        C732   1.407       .  A
N726        H741   1.046       .  S
N726        H742   1.045       .  S
C728        C729   1.394       .  A
C728        H733   1.084       .  S
C729        C730   1.426       .  A
C729        N734   1.431       .  S
C730        C731   1.417       .  A
C731        C732   1.413       .  A
C731        H735   1.080       .  S
C732        N736   1.437       .  S
N734        H737   1.046       .  S
N734        H738   1.046       .  S
N736        H739   1.047       .  S
N736        H740   1.045       .  S
C745        C746   1.427       .  A
C745        C750   1.417       .  A
C746        C747   1.400       .  A
C746        N751   1.434       .  S
C747        C748   1.401       .  A
C747        H752   1.083       .  S
C748        C753   1.491       .  S
C748        C749   1.412       .  A
C749        C750   1.401       .  A
C749        N754   1.439   1_455  S
C750        H755   1.075   1_455  S
N751        H771   1.046       .  S
N751        H772   1.046       .  S
C753        C756   1.398       .  A
C753        C760   1.403       .  A
N754        H769   1.046       .  S
N754        H770   1.044       .  S
C756        C757   1.398   1_455  A
C756        H761   1.084   1_455  S
C757        C758   1.440   1_655  A
C757        N762   1.440       .  S
C758        C759   1.423       .  A
C759        C760   1.406       .  A
C759        H763   1.073       .  S
C760        N764   1.438       .  S
N762        H765   1.045       .  S
N762        H766   1.035       .  S
N764        H767   1.045       .  S
N764        H768   1.046       .  S
C773        C774   1.416       .  A
C773        C778   1.409       .  A
C774        C775   1.408       .  A
C774        N779   1.437       .  S
C775        C776   1.402       .  A
C775        H780   1.084       .  S
C776        C781   1.479       .  S
C776        C777   1.406       .  A
C777        C778   1.405       .  A
C777        N782   1.438       .  S
C778        H783   1.083       .  S
N779        H799   1.045       .  S
N779        H800   1.046       .  S
C781        C784   1.401       .  A
C781        C788   1.401       .  A
N782        H797   1.045       .  S
N782        H798   1.046       .  S
C784        C785   1.410       .  A
C784        H789   1.083       .  S
C785        C786   1.424   1_655  A
C785        N790   1.433   1_655  S
C786        C787   1.420   1_455  A
C787        C788   1.396       .  A
C787        H791   1.076       .  S
C788        N792   1.440       .  S
N790        H793   1.046       .  S
N790        H794   1.045       .  S
N792        H795   1.046       .  S
N792        H796   1.046       .  S
C801        C802   1.426       .  A
C801        C806   1.412       .  A
C802        C803   1.411       .  A
C802        N807   1.436       .  S
C803        C804   1.401       .  A
C803        H808   1.083       .  S
C804        C809   1.476       .  S
C804        C805   1.402       .  A
C805        C806   1.397       .  A
C805        N810   1.438       .  S
C806        H811   1.075       .  S
N807        H827   1.045       .  S
N807        H828   1.045       .  S
C809        C812   1.393       .  A
C809        C816   1.409       .  A
N810        H825   1.045       .  S
N810        H826   1.046       .  S
C812        C813   1.395       .  A
C812        H817   1.086       .  S
C813        C814   1.435       .  A
C813        N818   1.433       .  S
C814        C815   1.418       .  A
C815        C816   1.407       .  A
C815        H819   1.083       .  S
C816        N820   1.437       .  S
N818        H821   1.046       .  S
N818        H822   1.046       .  S
N820        H823   1.045       .  S
N820        H824   1.044       .  S
C829        C830   1.425       .  A
C829        C834   1.417       .  A
C830        C831   1.411       .  A
C830        N835   1.436       .  S
C831        C832   1.405       .  A
C831        H836   1.084       .  S
C832        C837   1.498       .  S
C832        C833   1.411       .  A
C833        C834   1.405       .  A
C833        N838   1.438       .  S
C834        H839   1.082       .  S
N835        H855   1.045       .  S
N835        H856   1.046       .  S
C837        C840   1.407       .  A
C837        C844   1.414       .  A
N838        H853   1.046       .  S
N838        H854   1.045       .  S
C840        C841   1.412       .  A
C840        H845   1.083       .  S
C841        C842   1.415       .  A
C841        N846   1.437       .  S
C842        C843   1.405       .  A
C843        C844   1.405       .  A
C843        H847   1.083       .  S
C844        N848   1.439       .  S
N846        H849   1.046       .  S
N846        H850   1.045       .  S
N848        H851   1.045       .  S
N848        H852   1.046       .  S
C857        C858   1.419       .  A
C857        C862   1.405       .  A
C858        C859   1.409       .  A
C858        N863   1.438       .  S
C859        C860   1.401       .  A
C859        H864   1.084       .  S
C860        C865   1.489       .  S
C860        C861   1.411       .  A
C861        C862   1.406       .  A
C861        N866   1.438       .  S
C862        H867   1.083       .  S
N863        H883   1.045       .  S
N863        H884   1.046       .  S
C865        C868   1.397       .  A
C865        C872   1.404       .  A
N866        H881   1.046       .  S
N866        H882   1.046       .  S
C868        C869   1.407       .  A
C868        H873   1.084       .  S
C869        C870   1.433       .  A
C869        N874   1.428       .  S
C870        C871   1.422       .  A
C871        C872   1.406       .  A
C871        H875   1.084       .  S
C872        N876   1.438       .  S
N874        H877   1.046       .  S
N874        H878   1.046       .  S
N876        H879   1.045       .  S
N876        H880   1.046       .  S
C885        C886   1.429       .  A
C885        C890   1.416       .  A
C886        C887   1.414   1_565  A
C886        N891   1.433   1_565  S
C887        C888   1.400   1_545  A
C887        H892   1.083       .  S
C888        C893   1.482   1_565  S
C888        C889   1.401       .  A
C889        C890   1.393       .  A
C889        N894   1.439       .  S
C890        H895   1.071       .  S
N891        H911   1.045   1_545  S
N891        H912   1.046       .  S
C893        C896   1.398       .  A
C893        C900   1.404   1_545  A
N894        H909   1.045       .  S
N894        H910   1.046       .  S
C896        C897   1.400       .  A
C896        H901   1.085       .  S
C897        C898   1.424       .  A
C897        N902   1.429       .  S
C898        C899   1.420   1_545  A
C899        C900   1.411       .  A
C899        H903   1.080       .  S
C900        N904   1.437       .  S
N902        H905   1.046       .  S
N902        H906   1.045       .  S
N904        H907   1.046       .  S
N904        H908   1.045       .  S
C913        C914   1.411       .  A
C913        C918   1.402       .  A
C914        C915   1.411       .  A
C914        N919   1.437       .  S
C915        C916   1.406       .  A
C915        H920   1.083       .  S
C916        C921   1.496       .  S
C916        C917   1.416       .  A
C917        C918   1.407       .  A
C917        N922   1.439       .  S
C918        H923   1.084       .  S
N919        H939   1.046       .  S
N919        H940   1.046       .  S
C921        C924   1.398       .  A
C921        C928   1.412       .  A
N922        H937   1.046       .  S
N922        H938   1.046       .  S
C924        C925   1.401       .  A
C924        H929   1.084       .  S
C925        C926   1.430       .  A
C925        N930   1.432       .  S
C926        C927   1.415       .  A
C927        C928   1.413       .  A
C927        H931   1.079       .  S
C928        N932   1.438       .  S
N930        H933   1.046       .  S
N930        H934   1.046       .  S
N932        H935   1.045       .  S
N932        H936   1.046       .  S
C941        C942   1.413       .  A
C941        C946   1.411       .  A
C942        C943   1.403       .  A
C942        N947   1.438       .  S
C943        C944   1.401       .  A
C943        H948   1.084       .  S
C944        C949   1.482       .  S
C944        C945   1.406       .  A
C945        C946   1.412       .  A
C945        N950   1.437       .  S
C946        H951   1.084       .  S
N947        H967   1.045       .  S
N947        H968   1.046       .  S
C949        C952   1.397       .  A
C949        C956   1.401       .  A
N950        H965   1.045       .  S
N950        H966   1.046       .  S
C952        C953   1.409       .  A
C952        H957   1.084       .  S
C953        C954   1.434       .  A
C953        N958   1.430       .  S
C954        C955   1.420       .  A
C955        C956   1.402       .  A
C955        H959   1.083       .  S
C956        N960   1.438       .  S
N958        H961   1.045       .  S
N958        H962   1.046       .  S
N960        H963   1.046       .  S
N960        H964   1.045       .  S
C969        C970   1.412       .  A
C969        C974   1.407       .  A
C970        C971   1.406       .  A
C970        N975   1.437       .  S
C971        C972   1.405       .  A
C971        H976   1.084       .  S
C972        C977   1.485       .  S
C972        C973   1.409       .  A
C973        C974   1.404       .  A
C973        N978   1.438       .  S
C974        H979   1.084       .  S
N975        H995   1.046       .  S
N975        H996   1.046       .  S
C977        C980   1.397       .  A
C977        C984   1.408       .  A
N978        H993   1.045       .  S
N978        H994   1.046       .  S
C980        C981   1.397       .  A
C980        H985   1.084       .  S
C981        C982   1.425       .  A
C981        N986   1.432       .  S
C982        C983   1.414       .  A
C983        C984   1.408       .  A
C983        H987   1.080       .  S
C984        N988   1.437       .  S
N986        H989   1.046       .  S
N986        H990   1.046       .  S
N988        H991   1.045       .  S
N988        H992   1.046       .  S
C997        C998   1.420       .  A
C997       C1002   1.421       .  A
C998        C999   1.394       .  A
C998       N1003   1.431       .  S
C999       C1000   1.403       .  A
C999       H1004   1.079       .  S
C1000      C1005   1.497       .  S
C1000      C1001   1.414       .  A
C1001      C1002   1.403       .  A
C1001      N1006   1.438       .  S
C1002      H1007   1.082       .  S
N1003      H1023   1.046       .  S
N1003      H1024   1.045       .  S
C1005      C1008   1.404       .  A
C1005      C1012   1.414       .  A
N1006      H1021   1.046       .  S
N1006      H1022   1.046       .  S
C1008      C1009   1.400       .  A
C1008      H1013   1.082       .  S
C1009      C1010   1.427       .  A
C1009      N1014   1.432       .  S
C1010      C1011   1.414       .  A
C1011      C1012   1.397       .  A
C1011      H1015   1.073       .  S
C1012      N1016   1.439       .  S
N1014      H1017   1.045       .  S
N1014      H1018   1.046       .  S
N1016      H1019   1.046       .  S
N1016      H1020   1.046       .  S
C1025      C1026   1.427       .  A
C1025      C1030   1.419       .  A
C1026      C1027   1.405       .  A
C1026      N1031   1.429       .  S
C1027      C1028   1.402       .  A
C1027      H1032   1.083       .  S
C1028      C1033   1.501       .  S
C1028      C1029   1.414       .  A
C1029      C1030   1.401       .  A
C1029      N1034   1.439       .  S
C1030      H1035   1.083       .  S
N1031      H1051   1.046       .  S
N1031      H1052   1.046       .  S
C1033      C1036   1.400       .  A
C1033      C1040   1.413       .  A
N1034      H1049   1.046       .  S
N1034      H1050   1.046       .  S
C1036      C1037   1.405       .  A
C1036      H1041   1.083       .  S
C1037      C1038   1.434       .  A
C1037      N1042   1.430       .  S
C1038      C1039   1.417       .  A
C1039      C1040   1.402       .  A
C1039      H1043   1.081       .  S
C1040      N1044   1.439       .  S
N1042      H1045   1.046       .  S
N1042      H1046   1.046       .  S
N1044      H1047   1.045       .  S
N1044      H1048   1.046       .  S
C1053      C1054   1.424       .  A
C1053      C1058   1.418       .  A
C1054      C1055   1.405       .  A
C1054      N1059   1.433       .  S
C1055      C1056   1.402       .  A
C1055      H1060   1.084       .  S
C1056      C1061   1.490       .  S
C1056      C1057   1.405       .  A
C1057      C1058   1.407       .  A
C1057      N1062   1.437       .  S
C1058      H1063   1.079       .  S
N1059      H1079   1.045       .  S
N1059      H1080   1.045       .  S
C1061      C1064   1.407       .  A
C1061      C1068   1.406       .  A
N1062      H1077   1.046       .  S
N1062      H1078   1.046       .  S
C1064      C1065   1.411       .  A
C1064      H1069   1.084       .  S
C1065      C1066   1.415       .  A
C1065      N1070   1.438       .  S
C1066      C1067   1.409       .  A
C1067      C1068   1.405       .  A
C1067      H1071   1.083       .  S
C1068      N1072   1.437       .  S
N1070      H1073   1.046       .  S
N1070      H1074   1.045       .  S
N1072      H1075   1.045       .  S
N1072      H1076   1.046       .  S
C1081      C1082   1.429       .  A
C1081      C1086   1.419   1_545  A
C1082      C1083   1.399       .  A
C1082      N1087   1.433       .  S
C1083      C1084   1.397       .  A
C1083      H1088   1.084       .  S
C1084      C1089   1.478       .  S
C1084      C1085   1.401   1_545  A
C1085      C1086   1.398       .  A
C1085      N1090   1.433       .  S
C1086      H1091   1.077       .  S
N1087      H1107   1.044       .  S
N1087      H1108   1.046       .  S
C1089      C1092   1.396   1_545  A
C1089      C1096   1.399       .  A
N1090      H1105   1.046       .  S
N1090      H1106   1.045       .  S
C1092      C1093   1.396       .  A
C1092      H1097   1.084       .  S
C1093      C1094   1.439       .  A
C1093      N1098   1.432       .  S
C1094      C1095   1.423   1_565  A
C1095      C1096   1.396       .  A
C1095      H1099   1.078       .  S
C1096      N1100   1.433       .  S
N1098      H1101   1.042       .  S
N1098      H1102   1.038       .  S
N1100      H1103   1.046       .  S
N1100      H1104   1.045       .  S
C1109      C1110   1.435   1_545  A
C1109      C1114   1.419       .  A
C1110      C1111   1.405       .  A
C1110      N1115   1.432       .  S
C1111      C1112   1.395   1_565  A
C1111      H1116   1.084       .  S
C1112      C1117   1.478       .  S
C1112      C1113   1.401       .  A
C1113      C1114   1.402       .  A
C1113      N1118   1.439       .  S
C1114      H1119   1.079       .  S
N1115      H1135   1.045       .  S
N1115      H1136   1.046       .  S
C1117      C1120   1.398       .  A
C1117      C1124   1.402       .  A
N1118      H1133   1.046       .  S
N1118      H1134   1.044       .  S
C1120      C1121   1.407       .  A
C1120      H1125   1.084       .  S
C1121      C1122   1.436       .  A
C1121      N1126   1.435       .  S
C1122      C1123   1.420       .  A
C1123      C1124   1.395       .  A
C1123      H1127   1.076       .  S
C1124      N1128   1.441       .  S
N1126      H1129   1.044   1_545  S
N1126      H1130   1.040       .  S
N1128      H1131   1.044   1_545  S
N1128      H1132   1.046       .  S
C1137      C1138   1.413       .  A
C1137      C1142   1.397       .  A
C1138      C1139   1.412       .  A
C1138      N1143   1.437       .  S
C1139      C1140   1.406       .  A
C1139      H1144   1.083       .  S
C1140      C1145   1.489       .  S
C1140      C1141   1.415       .  A
C1141      C1142   1.398       .  A
C1141      N1146   1.439       .  S
C1142      H1147   1.084       .  S
N1143      H1163   1.045       .  S
N1143      H1164   1.046       .  S
C1145      C1148   1.396       .  A
C1145      C1152   1.411       .  A
N1146      H1161   1.046       .  S
N1146      H1162   1.045       .  S
C1148      C1149   1.395       .  A
C1148      H1153   1.084       .  S
C1149      C1150   1.427       .  A
C1149      N1154   1.431       .  S
C1150      C1151   1.414       .  A
C1151      C1152   1.412       .  A
C1151      H1155   1.080   1_565  S
C1152      N1156   1.437       .  S
N1154      H1157   1.046       .  S
N1154      H1158   1.046       .  S
N1156      H1159   1.045       .  S
N1156      H1160   1.046       .  S
C1165      C1166   1.414       .  A
C1165      C1170   1.410       .  A
C1166      C1167   1.408       .  A
C1166      N1171   1.437       .  S
C1167      C1168   1.403       .  A
C1167      H1172   1.084       .  S
C1168      C1173   1.488       .  S
C1168      C1169   1.408       .  A
C1169      C1170   1.410       .  A
C1169      N1174   1.438       .  S
C1170      H1175   1.083       .  S
N1171      H1191   1.046       .  S
N1171      H1192   1.046       .  S
C1173      C1176   1.403       .  A
C1173      C1180   1.400       .  A
N1174      H1189   1.046       .  S
N1174      H1190   1.046       .  S
C1176      C1177   1.418       .  A
C1176      H1181   1.083       .  S
C1177      C1178   1.431       .  A
C1177      N1182   1.440       .  S
C1178      C1179   1.423       .  A
C1179      C1180   1.396       .  A
C1179      H1183   1.074       .  S
C1180      N1184   1.441       .  S
N1182      H1185   1.046       .  S
N1182      H1186   1.042       .  S
N1184      H1187   1.045       .  S
N1184      H1188   1.046       .  S
C1193      C1194   1.431       .  A
C1193      C1198   1.420       .  A
C1194      C1195   1.400       .  A
C1194      N1199   1.433       .  S
C1195      C1196   1.394       .  A
C1195      H1200   1.084       .  S
C1196      C1201   1.480       .  S
C1196      C1197   1.409       .  A
C1197      C1198   1.403       .  A
C1197      N1202   1.438       .  S
C1198      H1203   1.078       .  S
N1199      H1219   1.046       .  S
N1199      H1220   1.046       .  S
C1201      C1204   1.397       .  A
C1201      C1208   1.410       .  A
N1202      H1217   1.045       .  S
N1202      H1218   1.044       .  S
C1204      C1205   1.406       .  A
C1204      H1209   1.084       .  S
C1205      C1206   1.419       .  A
C1205      N1210   1.438       .  S
C1206      C1207   1.405       .  A
C1207      C1208   1.406       .  A
C1207      H1211   1.084       .  S
C1208      N1212   1.438       .  S
N1210      H1213   1.046       .  S
N1210      H1214   1.045       .  S
N1212      H1215   1.046       .  S
N1212      H1216   1.045       .  S
C1221      C1222   1.436       .  A
C1221      C1226   1.417   1_455  A
C1222      C1223   1.405       .  A
C1222      N1227   1.440       .  S
C1223      C1224   1.395       .  A
C1223      H1228   1.084       .  S
C1224      C1229   1.471       .  S
C1224      C1225   1.399       .  A
C1225      C1226   1.391   1_455  A
C1225      N1230   1.434   1_455  S
C1226      H1231   1.076       .  S
N1227      H1247   1.042       .  S
N1227      H1248   1.045       .  S
C1229      C1232   1.396       .  A
C1229      C1236   1.403       .  A
N1230      H1245   1.045       .  S
N1230      H1246   1.046       .  S
C1232      C1233   1.396       .  A
C1232      H1237   1.084   1_455  S
C1233      C1234   1.426       .  A
C1233      N1238   1.433   1_455  S
C1234      C1235   1.420       .  A
C1235      C1236   1.401       .  A
C1235      H1239   1.077       .  S
C1236      N1240   1.439       .  S
N1238      H1241   1.046       .  S
N1238      H1242   1.046       .  S
N1240      H1243   1.046       .  S
N1240      H1244   1.045       .  S
C1249      C1250   1.434       .  A
C1249      C1254   1.420   1_455  A
C1250      C1251   1.401       .  A
C1250      N1255   1.432       .  S
C1251      C1252   1.392       .  A
C1251      H1256   1.085       .  S
C1252      C1257   1.476       .  S
C1252      C1253   1.400   1_455  A
C1253      C1254   1.406       .  A
C1253      N1258   1.438       .  S
C1254      H1259   1.075       .  S
N1255      H1275   1.046       .  S
N1255      H1276   1.045       .  S
C1257      C1260   1.392       .  A
C1257      C1264   1.408       .  A
N1258      H1273   1.045       .  S
N1258      H1274   1.046       .  S
C1260      C1261   1.391       .  A
C1260      H1265   1.086       .  S
C1261      C1262   1.436       .  A
C1261      N1266   1.434       .  S
C1262      C1263   1.420       .  A
C1263      C1264   1.407       .  A
C1263      H1267   1.084       .  S
C1264      N1268   1.437       .  S
N1266      H1269   1.046       .  S
N1266      H1270   1.046   1_455  S
N1268      H1271   1.046   1_455  S
N1268      H1272   1.044       .  S
C1277      C1278   1.418       .  A
C1277      C1282   1.405       .  A
C1278      C1279   1.411       .  A
C1278      N1283   1.437       .  S
C1279      C1280   1.400       .  A
C1279      H1284   1.084       .  S
C1280      C1285   1.482       .  S
C1280      C1281   1.409       .  A
C1281      C1282   1.405       .  A
C1281      N1286   1.439       .  S
C1282      H1287   1.083       .  S
N1283      H1303   1.046       .  S
N1283      H1304   1.046       .  S
C1285      C1288   1.393       .  A
C1285      C1292   1.404       .  A
N1286      H1301   1.045       .  S
N1286      H1302   1.045       .  S
C1288      C1289   1.401       .  A
C1288      H1293   1.084       .  S
C1289      C1290   1.433       .  A
C1289      N1294   1.434       .  S
C1290      C1291   1.421       .  A
C1291      C1292   1.410       .  A
C1291      H1295   1.075       .  S
C1292      N1296   1.438       .  S
N1294      H1297   1.046       .  S
N1294      H1298   1.045       .  S
N1296      H1299   1.046       .  S
N1296      H1300   1.045       .  S
C1305      C1306   1.414       .  A
C1305      C1310   1.401       .  A
C1306      C1307   1.407       .  A
C1306      N1311   1.437       .  S
C1307      C1308   1.403       .  A
C1307      H1312   1.083       .  S
C1308      C1313   1.488       .  S
C1308      C1309   1.415       .  A
C1309      C1310   1.402       .  A
C1309      N1314   1.439       .  S
C1310      H1315   1.084       .  S
N1311      H1331   1.046       .  S
N1311      H1332   1.045       .  S
C1313      C1316   1.395       .  A
C1313      C1320   1.410       .  A
N1314      H1329   1.046       .  S
N1314      H1330   1.046       .  S
C1316      C1317   1.397       .  A
C1316      H1321   1.084       .  S
C1317      C1318   1.429       .  A
C1317      N1322   1.429       .  S
C1318      C1319   1.415       .  A
C1319      C1320   1.410       .  A
C1319      H1323   1.079       .  S
C1320      N1324   1.437       .  S
N1322      H1325   1.046       .  S
N1322      H1326   1.046       .  S
N1324      H1327   1.045       .  S
N1324      H1328   1.046       .  S
