geometry optimzed in LAMMPS
_audit_creation_date              2020-11-30 
_audit_creation_method            'lammps2cif' 
_symmetry_space_group_name_H-M    'P1' 
_symmetry_Int_Tables_number       1 
_symmetry_cell_setting            triclinic 
loop_ 
_symmetry_equiv_pos_as_xyz 
  x,y,z 
_cell_length_a                    45.22813253 
_cell_length_b                    45.284719728012256 
_cell_length_c                    71.46614678259593 
_cell_angle_alpha                 90.37895580482302 
_cell_angle_beta                  90.00332945952155 
_cell_angle_gamma                 120.01937206842274 
loop_ 
_atom_site_label 
_atom_site_type_symbol 
_atom_site_fract_x 
_atom_site_fract_y 
_atom_site_fract_z 
_atom_site_charge 
N1          N  0.49735800  0.38876051  0.08312269    -0.27700
N2          N  0.51646372  0.39975031  0.09832976    -0.35600
C3          C  0.50446438  0.37456965  0.11096846     0.00600
C4          C  0.47627212  0.34617390  0.10331526     0.06600
C5          C  0.47258963  0.35631751  0.08560431    -0.06500
H6          H  0.51583910  0.37686182  0.12459069     0.07300
H7          H  0.45387750  0.34119812  0.07503958     0.08500
Cu8        Cu  0.55916844  0.44770539  0.10019019     0.44200
Cu9        Cu  0.50739477  0.41810296  0.05951480     0.42000
Cu10       Cu  0.58571370  0.50040048  0.05802157     0.43900
N11         N  0.60421056  0.49360235  0.09783941    -0.35100
N12         N  0.61448196  0.51259237  0.08264488    -0.29400
C13         C  0.64607907  0.53913954  0.08577061    -0.05500
C14         C  0.65623382  0.53667163  0.10379916     0.06700
C15         C  0.62876889  0.50743356  0.11094882     0.00500
H16         H  0.66076907  0.55824019  0.07543882     0.08200
H17         H  0.62681739  0.49617832  0.12450385     0.07300
N18         N  0.55040911  0.48035559  0.03608228    -0.36600
N19         N  0.52199981  0.45044795  0.03694705    -0.28800
C20         C  0.50404732  0.44495544  0.02108404    -0.04000
C21         C  0.52178759  0.47261215  0.00956866     0.04600
C22         C  0.55121098  0.49469379  0.01948001     0.02700
H23         H  0.47950494  0.42258767  0.01827003     0.07800
H24         H  0.57136422  0.51954261  0.01519086     0.06600
N25         N  0.53247189  0.59600663  0.89073085    -0.27700
N26         N  0.50914155  0.58768614  0.87756201    -0.35600
C27         C  0.52065312  0.61274019  0.86486009     0.00600
C28         C  0.55298489  0.63827842  0.87029836     0.06600
C29         C  0.55953071  0.62658335  0.88682517    -0.06500
H30         H  0.50612356  0.61239760  0.85277002     0.07300
H31         H  0.58197968  0.63934591  0.89562083     0.08500
Cu32       Cu  0.46250132  0.54309828  0.87815887     0.44200
Cu33       Cu  0.52538696  0.56572138  0.91365032     0.42000
Cu34       Cu  0.44284744  0.48736789  0.91835677     0.43900
N35         N  0.41711698  0.49777325  0.88141613    -0.35100
N36         N  0.40936590  0.47729605  0.89592855    -0.29400
C37         C  0.37781264  0.45028397  0.89327318    -0.05500
C38         C  0.36514720  0.45395279  0.87621880     0.06700
C39         C  0.39099953  0.48450427  0.86922005     0.00500
H40         H  0.36524180  0.42949580  0.90302872     0.08200
H41         H  0.39111313  0.49661813  0.85622474     0.07300
N42         N  0.48276213  0.50423380  0.93775492    -0.36600
N43         N  0.51252379  0.53253942  0.93579805    -0.28800
C44         C  0.53261978  0.53632321  0.95051517    -0.04000
C45         C  0.51489404  0.50919012  0.96237934     0.04600
C46         C  0.48326915  0.48924064  0.95387925     0.02700
H47         H  0.55828078  0.55749643  0.95248381     0.07800
H48         H  0.46207254  0.46575943  0.95900565     0.06600
O49         O  0.52498665  0.50815622  0.46562225    -0.73400
O50         O  0.50086057  0.42169316  0.49242364    -0.74400
O51         O  0.46569803  0.44338962  0.46830107    -0.63000
O52         O  0.56020905  0.48646351  0.48976888    -0.71400
O53         O  0.54344975  0.50427442  0.51439820    -0.71000
O54         O  0.44903328  0.46139487  0.49288916    -0.62200
O55         O  0.48395800  0.43948264  0.51700459    -0.74700
O56         O  0.50838659  0.52616248  0.49023723    -0.73500
Cu57       Cu  0.51353884  0.46431298  0.47817568     1.04600
Cu58       Cu  0.49563792  0.48346648  0.50448543     1.04300
C59         C  0.52021094  0.53074372  0.47361144     0.92800
C60         C  0.48873608  0.41691904  0.50898525     0.91900
C61         C  0.44244263  0.44584238  0.47712786     0.84100
C62         C  0.56672965  0.50184942  0.50558310     0.90400
O63         O  0.11381505  0.82075100  0.81864756    -0.73400
O64         O  0.19899976  0.84323761  0.84669443    -0.74400
O65         O  0.17874717  0.87977179  0.82290808    -0.63000
O66         O  0.13431066  0.78411375  0.84225903    -0.71400
O67         O  0.15324927  0.76864993  0.81758310    -0.71000
O68         O  0.19714136  0.86382606  0.79819204    -0.62200
O69         O  0.21792660  0.82765645  0.82206508    -0.74700
O70         O  0.13213791  0.80486310  0.79388475    -0.73500
Cu71       Cu  0.15577499  0.83249718  0.83347045     1.04600
Cu72       Cu  0.17575537  0.81570641  0.80706301     1.04300
C73         C  0.10942856  0.80944348  0.80185868     0.92800
C74         C  0.22192115  0.83884445  0.83889311     0.91900
C75         C  0.19490226  0.88688249  0.80740627     0.84100
C76         C  0.13721250  0.76135018  0.83310224     0.90400
N77         N  0.61278034  0.05214828  0.09203841    -0.27700
N78         N  0.60405512  0.06498111  0.10622453    -0.35600
C79         C  0.63039312  0.08039317  0.11819147     0.00600
C80         C  0.65734633  0.07725314  0.11130978     0.06600
C81         C  0.64512641  0.05913018  0.09462733    -0.06500
H82         H  0.62974885  0.09322150  0.13085738     0.07300
H83         H  0.65858071  0.05154685  0.08499170     0.08500
Cu84       Cu  0.55751631  0.06255128  0.10871266     0.44200
Cu85       Cu  0.58000764  0.02596734  0.06992416     0.42000
Cu86       Cu  0.49731143  0.02125446  0.07156240     0.43900
N87         N  0.51142506  0.06127410  0.10714938    -0.35100
N88         N  0.48942592  0.04640999  0.09332295    -0.29400
C89         C  0.46319999  0.05205242  0.09553662    -0.05500
C90         C  0.46898419  0.07149946  0.11160014     0.06700
C91         C  0.49981494  0.07675053  0.11862229     0.00500
H92         H  0.44189028  0.04305778  0.08593433     0.08200
H93         H  0.51361741  0.09184435  0.13071894     0.07300
N94         N  0.51174654  0.99951169  0.05076247    -0.36600
N95         N  0.54171874  0.00110911  0.05002388    -0.28800
C96         C  0.54308368  0.98544374  0.03427129    -0.04000
C97         C  0.51263564  0.97366055  0.02467024     0.04600
C98         C  0.49330599  0.98295410  0.03556354     0.02700
H99         H  0.56498738  0.98358263  0.02987807     0.07800
H100        H  0.46807345  0.97884473  0.03258828     0.06600
N101        N  0.38281986  0.88312526  0.90277761    -0.27700
N102        N  0.39477087  0.87609130  0.88756933    -0.35600
C103        C  0.37174650  0.86692035  0.87371770     0.00600
C104        C  0.34365230  0.86817457  0.88042514     0.06600
C105        C  0.35167447  0.87859270  0.89897646    -0.06500
H106        H  0.37561675  0.86019202  0.85975794     0.07300
H107        H  0.33617615  0.88261833  0.90904511     0.08500
Cu108      Cu  0.44162139  0.87902369  0.88599088     0.44200
Cu109      Cu  0.41008485  0.89902222  0.92773704     0.42000
Cu110      Cu  0.49368870  0.90450868  0.92705790     0.43900
N111        N  0.48822949  0.88140688  0.88736859    -0.35100
N112        N  0.50753263  0.89064540  0.90252549    -0.29400
C113        C  0.53561948  0.88853627  0.89908672    -0.05500
C114        C  0.53386419  0.87734067  0.88078859     0.06700
C115        C  0.50337027  0.87313991  0.87383503     0.00500
H116        H  0.55559363  0.89457664  0.90925323     0.08200
H117        H  0.49238800  0.86406733  0.86010893     0.07300
N118        N  0.47401606  0.91703909  0.94977266    -0.36600
N119        N  0.44393014  0.91525143  0.95019260    -0.28800
C120        C  0.43988858  0.92605750  0.96707473    -0.04000
C121        C  0.46873708  0.93493234  0.97770888     0.04600
C122        C  0.48984191  0.92889597  0.96627615     0.02700
H123        H  0.41774438  0.92768789  0.97122745     0.07800
H124        H  0.51506001  0.93316463  0.96945829     0.06600
N125        N  0.93004953  0.38802506  0.08460240    -0.27700
N126        N  0.91972901  0.39807602  0.09933051    -0.35600
C127        C  0.90773758  0.37332943  0.11219897     0.00600
C128        C  0.91064192  0.34620830  0.10522787     0.06600
C129        C  0.92496465  0.35660752  0.08764151    -0.06500
H130        H  0.89745445  0.37512073  0.12553328     0.07300
H131        H  0.93114682  0.34253740  0.07763390     0.08500
Cu132      Cu  0.92160166  0.44450144  0.10087283     0.44200
Cu133      Cu  0.94942135  0.41708181  0.06093142     0.42000
Cu134      Cu  0.95246608  0.49880993  0.06003600     0.43900
N135        N  0.92333391  0.49077257  0.09876193    -0.35100
N136        N  0.93442222  0.51068769  0.08395766    -0.29400
C137        C  0.93035247  0.53781057  0.08690508    -0.05500
C138        C  0.91592178  0.53478723  0.10444310     0.06700
C139        C  0.91195857  0.50458310  0.11149960     0.00500
H140        H  0.93693936  0.55784467  0.07682848     0.08200
H141        H  0.90066147  0.49270555  0.12467079     0.07300
N142        N  0.96638452  0.47880478  0.03774068    -0.36600
N143        N  0.96526836  0.44908732  0.03822664    -0.28800
C144        C  0.97497022  0.44299461  0.02157942    -0.04000
C145        C  0.98251699  0.47007427  0.01000245     0.04600
C146        C  0.97685401  0.49244128  0.02068398     0.02700
H147        H  0.97607573  0.42027573  0.01810421     0.07800
H148        H  0.97975826  0.51662864  0.01644654     0.06600
N149        N  0.06918291  0.58659625  0.88636883    -0.27700
N150        N  0.08071905  0.57710965  0.87193132    -0.35600
C151        C  0.09307572  0.60207958  0.85916214     0.00600
C152        C  0.08908247  0.62870918  0.86589480     0.06600
C153        C  0.07382050  0.61781813  0.88324055    -0.06500
H154        H  0.10437041  0.60082848  0.84606783     0.07300
H155        H  0.06699663  0.63157820  0.89311347     0.08500
Cu156      Cu  0.08033330  0.53129910  0.87090742     0.44200
Cu157      Cu  0.04875938  0.55714247  0.90985416     0.42000
Cu158      Cu  0.04759710  0.47639422  0.91156045     0.43900
N159        N  0.08159083  0.48659984  0.87403302    -0.35100
N160        N  0.06995467  0.46657538  0.88877618    -0.29400
C161        C  0.07698987  0.44116117  0.88677922    -0.05500
C162        C  0.09402318  0.44543416  0.86994892     0.06700
C163        C  0.09626488  0.47454083  0.86228630     0.00500
H164        H  0.07090644  0.42166163  0.89713180     0.08200
H165        H  0.10842968  0.48685642  0.84935614     0.07300
N166        N  0.03046015  0.49508195  0.93303458    -0.36600
N167        N  0.03107225  0.52454550  0.93232129    -0.28800
C168        C  0.01986811  0.53008014  0.94863799    -0.04000
C169        C  0.01186461  0.50289449  0.96023193     0.04600
C170        C  0.01880935  0.48105302  0.94989348     0.02700
H171        H  0.01834996  0.55263391  0.95194709     0.07800
H172        H  0.01636123  0.45714191  0.95431191     0.06600
O173        O  0.87521055  0.19532357  0.13331955    -0.73400
O174        O  0.84911027  0.10797246  0.15975878    -0.74400
O175        O  0.81527221  0.13071162  0.13554267    -0.63000
O176        O  0.90921479  0.17257930  0.15724701    -0.71400
O177        O  0.89288314  0.19016320  0.18215132    -0.71000
O178        O  0.79852536  0.14870951  0.16009635    -0.62200
O179        O  0.83223679  0.12570759  0.18437451    -0.74700
O180        O  0.85889727  0.21314698  0.15813463    -0.73500
Cu181      Cu  0.86278121  0.15100122  0.14563435     1.04600
Cu182      Cu  0.84504074  0.17005674  0.17205500     1.04300
C183        C  0.87126326  0.21817583  0.14163502     0.92800
C184        C  0.83638205  0.10289184  0.17619171     0.91900
C185        C  0.79199653  0.13317927  0.14430785     0.84100
C186        C  0.91609293  0.18807732  0.17301970     0.90400
N187        N  0.15706022  0.72103208  0.41991858    -0.27700
N188        N  0.17765330  0.73067039  0.43455039    -0.35600
C189        C  0.16489350  0.70568765  0.44729851     0.00600
C190        C  0.13464819  0.67880699  0.44034411     0.06600
C191        C  0.13054864  0.68960727  0.42289882    -0.06500
H192        H  0.17734548  0.70685592  0.46041916     0.07300
H193        H  0.11010954  0.67569414  0.41294416     0.08500
Cu194      Cu  0.22286742  0.77667336  0.43574993     0.44200
Cu195      Cu  0.16760568  0.75084691  0.39643012     0.42000
Cu196      Cu  0.24742509  0.83281663  0.39530514     0.43900
N197        N  0.26823012  0.82238877  0.43385287    -0.35100
N198        N  0.27756914  0.84307219  0.41935256    -0.29400
C199        C  0.30923902  0.86945532  0.42260730    -0.05500
C200        C  0.32042355  0.86508598  0.43998598     0.06700
C201        C  0.29346919  0.83488667  0.44661320     0.00500
H202        H  0.32326615  0.88980443  0.41278204     0.08200
H203        H  0.29229529  0.82216912  0.45956572     0.07300
N204        N  0.21248034  0.81293856  0.37309869    -0.36600
N205        N  0.18381403  0.78320128  0.37380783    -0.28800
C206        C  0.16719082  0.77712829  0.35742515    -0.04000
C207        C  0.18604593  0.80416925  0.34570823     0.04600
C208        C  0.21471672  0.82657215  0.35607082     0.02700
H209        H  0.14305127  0.75449487  0.35426115     0.07800
H210        H  0.23566499  0.85085536  0.35163836     0.06600
N211        N  0.20728319  0.92120912  0.22326446    -0.27700
N212        N  0.18534385  0.91235549  0.20929984    -0.35600
C213        C  0.19682536  0.93811707  0.19705883     0.00600
C214        C  0.22766441  0.96465868  0.20366435     0.06600
C215        C  0.23340795  0.95282489  0.22035183    -0.06500
H216        H  0.18324122  0.93754006  0.18449193     0.07300
H217        H  0.25469408  0.96611515  0.22988574     0.08500
Cu218      Cu  0.14030878  0.86625564  0.20835748     0.44200
Cu219      Cu  0.19934394  0.89047148  0.24601238     0.42000
Cu220      Cu  0.11808085  0.81081194  0.24898863     0.43900
N221        N  0.09514406  0.82064205  0.21096272    -0.35100
N222        N  0.08638850  0.80038142  0.22562725    -0.29400
C223        C  0.05450086  0.77403479  0.22284855    -0.05500
C224        C  0.04262554  0.77800297  0.20559966     0.06700
C225        C  0.06937659  0.80789487  0.19855140     0.00500
H226        H  0.04086872  0.75391871  0.23285942     0.08200
H227        H  0.07011271  0.82026428  0.18554184     0.07300
N228        N  0.15560538  0.82921059  0.26991025    -0.36600
N229        N  0.18505183  0.85802965  0.26851162    -0.28800
C230        C  0.20330901  0.86330814  0.28424806    -0.04000
C231        C  0.18466776  0.83665821  0.29625023     0.04600
C232        C  0.15445935  0.81537188  0.28672098     0.02700
H233        H  0.22819651  0.88532705  0.28687243     0.07800
H234        H  0.13301131  0.79188485  0.29165189     0.06600
N235        N  0.26931461  0.38204025  0.42130219    -0.27700
N236        N  0.26042234  0.39377434  0.43593143    -0.35600
C237        C  0.28470329  0.40389758  0.44915056     0.00600
C238        C  0.31044688  0.39843198  0.44260965     0.06600
C239        C  0.29964579  0.38442695  0.42484816    -0.06500
H240        H  0.28385828  0.41535364  0.46230539     0.07300
H241        H  0.31303712  0.37720032  0.41496381     0.08500
Cu242      Cu  0.21717433  0.39814042  0.43718219     0.44200
Cu243      Cu  0.24051306  0.36503562  0.39691383     0.42000
Cu244      Cu  0.16419506  0.37333348  0.39655117     0.43900
N245        N  0.17427228  0.40296314  0.43514426    -0.35100
N246        N  0.15471743  0.39396024  0.42008885    -0.29400
C247        C  0.12934474  0.40075880  0.42289134    -0.05500
C248        C  0.13307812  0.41481589  0.44066499     0.06700
C249        C  0.16196655  0.41576416  0.44797601     0.00500
H250        H  0.10996277  0.39608485  0.41258080     0.08200
H251        H  0.17348685  0.42513294  0.46156702     0.07300
N252        N  0.17872833  0.35327930  0.37473672    -0.36600
N253        N  0.20636434  0.35029980  0.37468897    -0.28800
C254        C  0.20816914  0.33678670  0.35819534    -0.04000
C255        C  0.18024105  0.33102669  0.34743585     0.04600
C256        C  0.16221744  0.34172761  0.35836672     0.02700
H257        H  0.22843947  0.33184377  0.35438465     0.07800
H258        H  0.13893068  0.34150864  0.35461810     0.06600
N259        N  0.09490981  0.25736905  0.22358270    -0.27700
N260        N  0.10375113  0.24815387  0.20793508    -0.35600
C261        C  0.07836234  0.23814850  0.19538592     0.00600
C262        C  0.05201579  0.24102405  0.20348374     0.06600
C263        C  0.06363167  0.25347019  0.22139219    -0.06500
H264        H  0.07871402  0.22812118  0.18167306     0.07300
H265        H  0.05007743  0.25831895  0.23233648     0.08500
Cu266      Cu  0.14815964  0.24606914  0.20459432     0.44200
Cu267      Cu  0.12405408  0.27181536  0.24782458     0.42000
Cu268      Cu  0.20195901  0.26896830  0.24545277     0.43900
N269        N  0.19229919  0.24303509  0.20582531    -0.35100
N270        N  0.21196050  0.25177841  0.22084419    -0.29400
C271        C  0.23754383  0.24548159  0.21781944    -0.05500
C272        C  0.23393623  0.23191036  0.19997389     0.06700
C273        C  0.20486918  0.23080248  0.19277286     0.00500
H274        H  0.25656634  0.24948914  0.22822434     0.08200
H275        H  0.19317275  0.22122444  0.17923607     0.07300
N276        N  0.18566143  0.28210441  0.26935017    -0.36600
N277        N  0.15702711  0.28313336  0.27029219    -0.28800
C278        C  0.15374373  0.29257731  0.28767831    -0.04000
C279        C  0.18179567  0.29774587  0.29814274     0.04600
C280        C  0.20140307  0.29080627  0.28607773     0.02700
H281        H  0.13259634  0.29561686  0.29218556     0.07800
H282        H  0.22552643  0.29227770  0.28916589     0.06600
O283        O  0.40022704  0.20855840  0.15370651    -0.73400
O284        O  0.33891380  0.11925726  0.17850355    -0.74400
O285        O  0.39741492  0.14472203  0.15584931    -0.63000
O286        O  0.34159493  0.18296299  0.17652201    -0.71400
O287        O  0.30817028  0.16494400  0.15140781    -0.71000
O288        O  0.36490776  0.12751478  0.13036499    -0.62200
O289        O  0.30623229  0.10156305  0.15310125    -0.74700
O290        O  0.36688669  0.19107322  0.12855736    -0.73500
Cu291      Cu  0.37070265  0.16452354  0.16701373     1.04600
Cu292      Cu  0.33542703  0.14567931  0.13995907     1.04300
C293        C  0.39307152  0.21409461  0.13726312     0.92800
C294        C  0.31299214  0.09614710  0.16965398     0.91900
C295        C  0.38985300  0.12977292  0.13991850     0.84100
C296        C  0.31598437  0.17994802  0.16734053     0.90400
O297        O  0.02429557  0.46156593  0.46608643    -0.73400
O298        O  0.96616213  0.49532902  0.48915459    -0.74400
O299        O  0.02437828  0.52413795  0.46586767    -0.63000
O300        O  0.96631353  0.43289517  0.48928174    -0.71400
O301        O  0.99973637  0.44975276  0.51439768    -0.71000
O302        O  0.05762731  0.54155728  0.49105085    -0.62200
O303        O  0.99927576  0.51221810  0.51439554    -0.74700
O304        O  0.05804909  0.47892011  0.49106967    -0.73500
Cu305      Cu  0.99413952  0.47793024  0.47674813     1.04600
Cu306      Cu  0.02986482  0.49625452  0.50361921     1.04300
C307        C  0.05024611  0.46464921  0.47492844     0.92800
C308        C  0.97338636  0.50904415  0.50542206     0.91900
C309        C  0.05015746  0.54736689  0.47474177     0.84100
C310        C  0.97398929  0.42666072  0.50541533     0.90400
N311        N  0.74458276  0.57727003  0.55864397    -0.27700
N312        N  0.75231535  0.56268194  0.54492089    -0.35600
C313        C  0.72594825  0.54773098  0.53294490     0.00600
C314        C  0.70006664  0.55307935  0.53933004     0.06600
C315        C  0.71287898  0.57193284  0.55573940    -0.06500
H316        H  0.72584447  0.53379518  0.52058760     0.07300
H317        H  0.70033890  0.58130963  0.56490606     0.08500
Cu318      Cu  0.79788260  0.56300006  0.54277099     0.44200
Cu319      Cu  0.77782826  0.60374113  0.58050310     0.42000
Cu320      Cu  0.86023617  0.60749665  0.57847897     0.43900
N321        N  0.84428449  0.56483925  0.54371886    -0.35100
N322        N  0.86728557  0.58111961  0.55693026    -0.29400
C323        C  0.89412375  0.57663281  0.55405256    -0.05500
C324        C  0.88770947  0.55650991  0.53818312     0.06700
C325        C  0.85579976  0.54958458  0.53201165     0.00500
H326        H  0.91653415  0.58728526  0.56292780     0.08200
H327        H  0.84151527  0.53403770  0.52014504     0.07300
N328        N  0.84627108  0.62970451  0.59939189    -0.36600
N329        N  0.81639947  0.62832621  0.60025278    -0.28800
C330        C  0.81538463  0.64436618  0.61593560    -0.04000
C331        C  0.84612357  0.65630251  0.62536099     0.04600
C332        C  0.86500933  0.64656694  0.61446619     0.02700
H333        H  0.79362052  0.64654990  0.62020734     0.07800
H334        H  0.89037065  0.65095926  0.61741263     0.06600
N335        N  0.94519022  0.76641079  0.74144292    -0.27700
N336        N  0.93924048  0.78286487  0.75489309    -0.35600
C337        C  0.96431496  0.79389352  0.76768032     0.00600
C338        C  0.98734861  0.78387314  0.76210276     0.06600
C339        C  0.97435911  0.76654487  0.74531582    -0.06500
H340        H  0.96535164  0.80802704  0.78014854     0.07300
H341        H  0.98484868  0.75435847  0.73666961     0.08500
Cu342      Cu  0.89666682  0.78834294  0.75605311     0.44200
Cu343      Cu  0.91279122  0.74415121  0.71879775     0.42000
Cu344      Cu  0.83629616  0.75202116  0.71835918     0.43900
N345        N  0.85057836  0.78734523  0.75570256    -0.35100
N346        N  0.82827041  0.77400136  0.74187992    -0.29400
C347        C  0.80041461  0.77600396  0.74622629    -0.05500
C348        C  0.80535613  0.79133421  0.76373140     0.06700
C349        C  0.83761093  0.79818026  0.76923633     0.00500
H350        H  0.77807811  0.76635646  0.73735329     0.08200
H351        H  0.85075907  0.80974216  0.78220013     0.07300
N352        N  0.84917250  0.72890432  0.69730212    -0.36600
N353        N  0.87672640  0.72579427  0.69754346    -0.28800
C354        C  0.87726774  0.70938411  0.68192596    -0.04000
C355        C  0.84864135  0.70184800  0.67134219     0.04600
C356        C  0.83143638  0.71452314  0.68152626     0.02700
H357        H  0.89707886  0.70346100  0.67865679     0.07800
H358        H  0.80772311  0.71338958  0.67774815     0.06600
O359        O  0.68435064  0.81432246  0.79736377    -0.73400
O360        O  0.62138721  0.83690139  0.82500943    -0.74400
O361        O  0.67865751  0.87356409  0.80173538    -0.63000
O362        O  0.62681150  0.77774746  0.82096012    -0.71400
O363        O  0.66145333  0.79336549  0.84554727    -0.71000
O364        O  0.71249423  0.88899965  0.82666340    -0.62200
O365        O  0.65506780  0.85190935  0.85000131    -0.74700
O366        O  0.71884822  0.83029570  0.82202084    -0.73500
Cu367      Cu  0.65163740  0.82507196  0.81038923     1.04600
Cu368      Cu  0.68817345  0.84165726  0.83690861     1.04300
C369        C  0.71172899  0.81894891  0.80522773     0.92800
C370        C  0.62811297  0.84785760  0.84186232     0.91900
C371        C  0.70370724  0.89649515  0.81121929     0.84100
C372        C  0.63570823  0.77053248  0.83647616     0.90400
N373        N  0.75708752  0.12423182  0.55581919    -0.27700
N374        N  0.76544538  0.14429545  0.54108716    -0.35600
C375        C  0.73974356  0.13065206  0.52860113     0.00600
C376        C  0.71356734  0.10037825  0.53571093     0.06600
C377        C  0.72566232  0.09718554  0.55304416    -0.06500
H378        H  0.73998107  0.14266285  0.51554023     0.07300
H379        H  0.71250300  0.07707138  0.56311624     0.08500
Cu380      Cu  0.81020586  0.19060735  0.53873915     0.44200
Cu381      Cu  0.78845992  0.13556100  0.57931796     0.42000
Cu382      Cu  0.87069599  0.21376030  0.57604231     0.43900
N383        N  0.85498684  0.23712414  0.54019832    -0.35100
N384        N  0.87740412  0.24553850  0.55390432    -0.29400
C385        C  0.90255515  0.27790810  0.55160851    -0.05500
C386        C  0.89565471  0.29066815  0.53563398     0.06700
C387        C  0.86524540  0.26390008  0.52875484     0.00500
H388        H  0.92383446  0.29120433  0.56115310     0.08200
H389        H  0.85086508  0.26404189  0.51670491     0.07300
N390        N  0.85553095  0.18185236  0.59887800    -0.36600
N391        N  0.82540234  0.15387432  0.60045319    -0.28800
C392        C  0.82303098  0.14093218  0.61766525    -0.04000
C393        C  0.85318342  0.16187586  0.62729348     0.04600
C394        C  0.87311184  0.18737750  0.61490643     0.02700
H395        H  0.80075551  0.11836548  0.62280541     0.07800
H396        H  0.89818788  0.20908945  0.61756356     0.06600
N397        N  0.80992907  0.07104820  0.75868946    -0.27700
N398        N  0.82960745  0.08178491  0.77370815    -0.35600
C399        C  0.81520558  0.05829771  0.78721363     0.00600
C400        C  0.78491959  0.03130004  0.78031476     0.06600
C401        C  0.78249498  0.04053580  0.76216640    -0.06500
H402        H  0.82687233  0.06022216  0.80070555     0.07300
H403        H  0.76337851  0.02545368  0.75176918     0.08500
Cu404      Cu  0.87717805  0.12549572  0.77393458     0.44200
Cu405      Cu  0.82347545  0.09572502  0.73334712     0.42000
Cu406      Cu  0.90959119  0.16612559  0.72857675     0.43900
N407        N  0.92590599  0.16620720  0.76969016    -0.35100
N408        N  0.93797924  0.18074634  0.75333638    -0.29400
C409        C  0.97091947  0.20506779  0.75552269    -0.05500
C410        C  0.98012991  0.20583736  0.77414773     0.06700
C411        C  0.95073376  0.18080033  0.78264677     0.00500
H412        H  0.98708940  0.22040896  0.74422213     0.08200
H413        H  0.94748874  0.17320798  0.79715204     0.07300
N414        N  0.87476949  0.14625978  0.70646256    -0.36600
N415        N  0.84322529  0.12067193  0.70848352    -0.28800
C416        C  0.82687640  0.11364182  0.69195753    -0.04000
C417        C  0.84902397  0.13581744  0.67880597     0.04600
C418        C  0.87928942  0.15625149  0.68846594     0.02700
H419        H  0.80065829  0.09382244  0.68970104     0.07800
H420        H  0.90278398  0.17688511  0.68294747     0.06600
O421        O  0.90286934  0.70388293  0.15549915    -0.73400
O422        O  0.81097372  0.64751960  0.13122996    -0.74400
O423        O  0.84046207  0.70453910  0.15590358    -0.63000
O424        O  0.87332276  0.64682560  0.13083257    -0.71400
O425        O  0.85634504  0.61258740  0.15538451    -0.71000
O426        O  0.82310705  0.66989851  0.18027983    -0.62200
O427        O  0.79378333  0.61289967  0.15560577    -0.74700
O428        O  0.88566529  0.66950994  0.17997882    -0.73500
Cu429      Cu  0.85749655  0.67691408  0.14252338     1.04600
Cu430      Cu  0.83910246  0.64001452  0.16864918     1.04300
C431        C  0.90890909  0.69563995  0.17153903     0.92800
C432        C  0.78781784  0.62117938  0.13955758     0.91900
C433        C  0.82662660  0.69641909  0.17205190     0.84100
C434        C  0.87012234  0.62055871  0.13922567     0.90400
N435        N  0.57555881  0.69729349  0.41411372    -0.27700
N436        N  0.56270757  0.70662226  0.42799967    -0.35600
C437        C  0.54894360  0.68148694  0.44061916     0.00600
C438        C  0.55337289  0.65486727  0.43443106     0.06600
C439        C  0.57034675  0.66590897  0.41750509    -0.06500
H440        H  0.53702876  0.68293929  0.45343300     0.07300
H441        H  0.57908558  0.65265050  0.40844477     0.08500
Cu442      Cu  0.56554151  0.75345175  0.42957914     0.44200
Cu443      Cu  0.60070786  0.72826524  0.39166203     0.42000
Cu444      Cu  0.60944337  0.81284667  0.39253625     0.43900
N445        N  0.57118140  0.80149253  0.42849700    -0.35100
N446        N  0.58712232  0.82344200  0.41493655    -0.29400
C447        C  0.58574185  0.85198403  0.41832459    -0.05500
C448        C  0.56811461  0.84776658  0.43489657     0.06700
C449        C  0.55930957  0.81536406  0.44089562     0.00500
H450        H  0.59693270  0.87412911  0.40939815     0.08200
H451        H  0.54486467  0.80239016  0.45320625     0.07300
N452        N  0.62847387  0.79522921  0.37159136    -0.36600
N453        N  0.62520078  0.76453564  0.37122082    -0.28800
C454        C  0.64019127  0.76133862  0.35570589    -0.04000
C455        C  0.65355622  0.79142471  0.34585899     0.04600
C456        C  0.64564423  0.81238624  0.35633065     0.02700
H457        H  0.64124522  0.73872856  0.35187455     0.07800
H458        H  0.65167423  0.83812576  0.35319031     0.06600
N459        N  0.77471676  0.93167887  0.23272661    -0.27700
N460        N  0.78922714  0.92381032  0.21906797    -0.35600
C461        C  0.80271173  0.94939586  0.20673018     0.00600
C462        C  0.79640689  0.97484316  0.21286261     0.06600
C463        C  0.77854011  0.96260030  0.22946105    -0.06500
H464        H  0.81610071  0.94919789  0.19424875     0.07300
H465        H  0.76874791  0.97494692  0.23849573     0.08500
Cu466      Cu  0.78917628  0.87831981  0.21747906     0.44200
Cu467      Cu  0.75052721  0.89951009  0.25490739     0.42000
Cu468      Cu  0.74311839  0.81528463  0.25283779     0.43900
N469        N  0.78338423  0.83017860  0.21730217    -0.35100
N470        N  0.76618739  0.80675315  0.23001458    -0.29400
C471        C  0.76732845  0.77838864  0.22569407    -0.05500
C472        C  0.78620290  0.78428798  0.20942209     0.06700
C473        C  0.79592561  0.81749287  0.20457368     0.00500
H474        H  0.75534475  0.75532697  0.23388777     0.08200
H475        H  0.81139625  0.83181091  0.19282372     0.07300
N476        N  0.72530661  0.83237899  0.27469307    -0.36600
N477        N  0.72828563  0.86294568  0.27542894    -0.28800
C478        C  0.71444813  0.86600777  0.29142418    -0.04000
C479        C  0.70209551  0.83599522  0.30121775     0.04600
C480        C  0.70941777  0.81515821  0.29022884     0.02700
H481        H  0.71327121  0.88842430  0.29555892     0.07800
H482        H  0.70366610  0.78942980  0.29316650     0.06600
O483        O  0.49465836  0.99457811  0.51452199    -0.73400
O484        O  0.52147111  0.93375076  0.48811251    -0.74400
O485        O  0.55546026  0.99127318  0.51218651    -0.63000
O486        O  0.46076137  0.93732386  0.49017264    -0.71400
O487        O  0.47735349  0.97199010  0.46582911    -0.71000
O488        O  0.57189006  0.02491045  0.48740404    -0.62200
O489        O  0.53748415  0.96731160  0.46328914    -0.74700
O490        O  0.51174338  0.02939805  0.49021900    -0.73500
Cu491      Cu  0.50750937  0.96304555  0.50209005     1.04600
Cu492      Cu  0.52516977  0.99959920  0.47582827     1.04300
C493        C  0.49918608  0.02177377  0.50668745     0.92800
C494        C  0.53359268  0.94065495  0.47156511     0.91900
C495        C  0.57867902  0.01669501  0.50324050     0.84100
C496        C  0.45413070  0.94611136  0.47443885     0.90400
N497        N  0.44431834  0.25396654  0.57004790    -0.27700
N498        N  0.45460430  0.24415327  0.55519914    -0.35600
C499        C  0.46383722  0.26767006  0.54178332     0.00600
C500        C  0.45921211  0.29390473  0.54839747     0.06600
C501        C  0.44673513  0.28423051  0.56644723    -0.06500
H502        H  0.47312172  0.26544999  0.52821534     0.07300
H503        H  0.43998691  0.29805128  0.57632528     0.08500
Cu504      Cu  0.45585378  0.19945878  0.55355638     0.44200
Cu505      Cu  0.42755920  0.22499534  0.59421548     0.42000
Cu506      Cu  0.42702848  0.14349370  0.59293684     0.43900
N507        N  0.45599228  0.15416006  0.55421784    -0.35100
N508        N  0.44534697  0.13325056  0.56859328    -0.29400
C509        C  0.44930494  0.10636656  0.56460761    -0.05500
C510        C  0.46325236  0.11068651  0.54681724     0.06700
C511        C  0.46702835  0.14135675  0.54072162     0.00500
H512        H  0.44290287  0.08558033  0.57412779     0.08200
H513        H  0.47704404  0.15373473  0.52747937     0.07300
N514        N  0.41112135  0.16095873  0.61554451    -0.36600
N515        N  0.41141015  0.19032101  0.61604661    -0.28800
C516        C  0.39894373  0.19330022  0.63259645    -0.04000
C517        C  0.39038292  0.16439930  0.64299584     0.04600
C518        C  0.39847653  0.14454505  0.63175435     0.02700
H519        H  0.39593555  0.21474278  0.63653173     0.07800
H520        H  0.39498128  0.11969998  0.63501508     0.06600
N521        N  0.27266466  0.06569272  0.75703343    -0.27700
N522        N  0.25858978  0.07345352  0.77099349    -0.35600
C523        C  0.24482150  0.04746277  0.78308146     0.00600
C524        C  0.25036208  0.02183578  0.77645296     0.06600
C525        C  0.26814993  0.03437877  0.75985975    -0.06500
H526        H  0.23102754  0.04711762  0.79550951     0.07300
H527        H  0.27706630  0.02177090  0.75042136     0.08500
Cu528      Cu  0.25732491  0.11820266  0.77288311     0.44200
Cu529      Cu  0.29687536  0.09800046  0.73476321     0.42000
Cu530      Cu  0.29884381  0.17930717  0.73628397     0.43900
N531        N  0.25808741  0.16400583  0.77169588    -0.35100
N532        N  0.27322274  0.18652743  0.75828533    -0.29400
C533        C  0.26824886  0.21305183  0.76129017    -0.05500
C534        C  0.24896450  0.20691066  0.77742163     0.06700
C535        C  0.24309685  0.17548318  0.78360525     0.00500
H536        H  0.27785592  0.23498006  0.75225640     0.08200
H537        H  0.22842057  0.16142947  0.79562832     0.07300
N538        N  0.32148310  0.16537117  0.71545851    -0.36600
N539        N  0.32057534  0.13573869  0.71480872    -0.28800
C540        C  0.33682142  0.13449271  0.69932087    -0.04000
C541        C  0.34849805  0.16485789  0.68976637     0.04600
C542        C  0.33834490  0.18376507  0.70041837     0.02700
H543        H  0.33941122  0.11284020  0.69529530     0.07800
H544        H  0.34241888  0.20887907  0.69730265     0.06600
O545        O  0.18253232  0.28177019  0.82579532    -0.73400
O546        O  0.14707697  0.33927869  0.84840617    -0.74400
O547        O  0.11934888  0.28120852  0.82464673    -0.63000
O548        O  0.21034673  0.33996061  0.84963023    -0.71400
O549        O  0.22778442  0.37320798  0.82469451    -0.71000
O550        O  0.13684341  0.31459807  0.79976584    -0.62200
O551        O  0.16475020  0.37268596  0.82352519    -0.74700
O552        O  0.19995710  0.31512156  0.80088914    -0.73500
Cu553      Cu  0.16422249  0.30937244  0.83797579     1.04600
Cu554      Cu  0.18296795  0.34505890  0.81136027     1.04300
C555        C  0.19698648  0.28940516  0.80979374     0.92800
C556        C  0.15008503  0.36498604  0.83946691     0.91900
C557        C  0.11353032  0.28873733  0.80835753     0.84100
C558        C  0.23354900  0.36594349  0.84106544     0.90400
C559        C  0.22072301  0.22074297  0.80357134    -0.13800
C560        C  0.23620268  0.22843216  0.78584486     0.08300
C561        C  0.23889098  0.25658503  0.77615669    -0.13800
C562        C  0.22616999  0.27636705  0.78392854    -0.13800
C563        C  0.21048425  0.26847844  0.80157331     0.08300
C564        C  0.20799678  0.24051585  0.81133328    -0.13800
H565        H  0.21843806  0.19951942  0.81156918     0.12300
H566        H  0.25045772  0.26326073  0.76245905     0.12300
H567        H  0.22852977  0.29779052  0.77605686     0.12300
H568        H  0.19620530  0.23386286  0.82500324     0.12300
C569        C  0.37440390  0.15495234  0.66165324    -0.16900
C570        C  0.36635628  0.17517474  0.67162987    -0.32100
H571        H  0.36854653  0.13028346  0.66706056     0.12100
H572        H  0.37230657  0.19988680  0.66624773     0.12700
C573        C  0.47193400  0.03405485  0.53379447    -0.13800
C574        C  0.48995543  0.04449900  0.51686199     0.08300
C575        C  0.49932482  0.07690505  0.50990046    -0.13800
C576        C  0.49079272  0.09840566  0.51965407    -0.13800
C577        C  0.47254873  0.08792523  0.53655865     0.08300
C578        C  0.46326642  0.05548358  0.54351093    -0.13800
H579        H  0.46431296  0.00917780  0.53951895     0.12300
H580        H  0.51346127  0.08577658  0.49696394     0.12300
H581        H  0.49874383  0.12328060  0.51389750     0.12300
H582        H  0.44910097  0.04639366  0.55639609     0.12300
C583        C  0.54924802  0.86720200  0.46295006    -0.13800
C584        C  0.55996719  0.87212286  0.44421648     0.08300
C585        C  0.56241968  0.90019561  0.43454089    -0.13800
C586        C  0.55400153  0.92264653  0.44339184    -0.13800
C587        C  0.54301468  0.91744951  0.46208469     0.08300
C588        C  0.54085492  0.88955479  0.47176292    -0.13800
H589        H  0.54749196  0.84619253  0.47094587     0.12300
H590        H  0.57037420  0.90462528  0.42006519     0.12300
H591        H  0.55586115  0.94389805  0.43556019     0.12300
H592        H  0.53267336  0.88492725  0.48621516     0.12300
C593        C  0.67190519  0.79858132  0.32792264    -0.16900
C594        C  0.68439125  0.82874132  0.31933859    -0.32100
H595        H  0.67493689  0.77835935  0.32166814     0.12100
H596        H  0.68136265  0.84894454  0.32561139     0.12700
C597        C  0.79955051  0.70948866  0.19904524    -0.13800
C598        C  0.81498364  0.71805085  0.18133657     0.08300
C599        C  0.81980503  0.74788744  0.17270583    -0.13800
C600        C  0.81000985  0.76904905  0.18171624    -0.13800
C601        C  0.79516803  0.76091313  0.19959240     0.08300
C602        C  0.78971446  0.73067626  0.20807093    -0.13800
H603        H  0.79540075  0.68659252  0.20604578     0.12300
H604        H  0.83146144  0.75511803  0.15902386     0.12300
H605        H  0.81421361  0.79181239  0.17459112     0.12300
H606        H  0.77843488  0.72357318  0.22182305     0.12300
C607        C  0.02115196  0.22008030  0.80097336    -0.13800
C608        C  0.01425301  0.22739373  0.78292634     0.08300
C609        C  0.04041357  0.25522183  0.77332682    -0.13800
C610        C  0.07264753  0.27510201  0.78153553    -0.13800
C611        C  0.07951355  0.26759056  0.79952646     0.08300
C612        C  0.05335305  0.23988736  0.80914905    -0.13800
H613        H  0.00187427  0.19880647  0.80881119     0.12300
H614        H  0.03606107  0.26186149  0.75949178     0.12300
H615        H  0.09218951  0.29638184  0.77377138     0.12300
H616        H  0.05772520  0.23343443  0.82304804     0.12300
C617        C  0.67189800  0.08431520  0.50900028    -0.13800
C618        C  0.67941846  0.07783480  0.52710846     0.08300
C619        C  0.65366212  0.05017974  0.53702793    -0.13800
C620        C  0.62111465  0.03003856  0.52921016    -0.13800
C621        C  0.61350858  0.03704815  0.51128416     0.08300
C622        C  0.63938763  0.06424486  0.50121785    -0.13800
H623        H  0.69094659  0.10504831  0.50076491     0.12300
H624        H  0.65832225  0.04425421  0.55096720     0.12300
H625        H  0.60177074  0.00923433  0.53733210     0.12300
H626        H  0.63448251  0.07025991  0.48732677     0.12300
C627        C  0.86249688  0.15989084  0.64688317    -0.16900
C628        C  0.84048439  0.13677343  0.65894445    -0.32100
H629        H  0.88794062  0.17874215  0.65156012     0.12100
H630        H  0.81490499  0.11820214  0.65431794     0.12700
C631        C  0.71226880  0.94112543  0.78795138    -0.13800
C632        C  0.72301523  0.93177583  0.80416141     0.08300
C633        C  0.75299684  0.95619360  0.81325252    -0.13800
C634        C  0.77257023  0.98885540  0.80585775    -0.13800
C635        C  0.76256087  0.99785055  0.78921449     0.08300
C636        C  0.73175720  0.97381033  0.78059471    -0.13800
H637        H  0.68904063  0.92301590  0.78075771     0.12300
H638        H  0.76185570  0.94982735  0.82584768     0.12300
H639        H  0.79599943  0.00659170  0.81296301     0.12300
H640        H  0.72280290  0.97989897  0.76797031     0.12300
C641        C  0.78939169  0.81206918  0.79262347    -0.13800
C642        C  0.78120066  0.79811586  0.77443940     0.08300
C643        C  0.74967803  0.79072841  0.76661320    -0.13800
C644        C  0.72707181  0.79731247  0.77664714    -0.13800
C645        C  0.73539885  0.81138808  0.79476131     0.08300
C646        C  0.76675338  0.81859761  0.80266124    -0.13800
H647        H  0.81327384  0.81804939  0.79922181     0.12300
H648        H  0.74234320  0.78001689  0.75268709     0.12300
H649        H  0.70307534  0.79143808  0.77016395     0.12300
H650        H  0.77394339  0.82949146  0.81658946     0.12300
C651        C  0.83778385  0.68404652  0.65313446    -0.16900
C652        C  0.85701318  0.67438524  0.64348162    -0.32100
H653        H  0.81338266  0.67906490  0.64755942     0.12100
H654        H  0.88167089  0.67987610  0.64891070     0.12700
C655        C  0.90331722  0.53067200  0.51162573    -0.13800
C656        C  0.90975305  0.54445063  0.52982770     0.08300
C657        C  0.93736282  0.54648833  0.53995763    -0.13800
C658        C  0.95806985  0.53500797  0.53204994    -0.13800
C659        C  0.95159317  0.52125203  0.51385005     0.08300
C660        C  0.92400112  0.51920528  0.50372828    -0.13800
H661        H  0.88250926  0.52898394  0.50333585     0.12300
H662        H  0.94288785  0.55663100  0.55407187     0.12300
H663        H  0.97908239  0.53681726  0.54022673     0.12300
H664        H  0.91839538  0.50881917  0.48964567     0.12300
C665        C  0.92691031  0.36601199  0.50296215    -0.13800
C666        C  0.95331562  0.39227844  0.51348170     0.08300
C667        C  0.96040311  0.38502307  0.53145973    -0.13800
C668        C  0.94167781  0.35209535  0.53868000    -0.13800
C669        C  0.91546251  0.32569523  0.52807352     0.08300
C670        C  0.90824303  0.33311992  0.51015748    -0.13800
H671        H  0.92089468  0.37072499  0.48902324     0.12300
H672        H  0.98055403  0.40473952  0.53992968     0.12300
H673        H  0.94778177  0.34750885  0.55260154     0.12300
H674        H  0.88845540  0.31349945  0.50150989     0.12300
C675        C  0.24557730  0.20109520  0.17419381    -0.13800
C676        C  0.25534979  0.21939417  0.19119090     0.08300
C677        C  0.28558281  0.22507906  0.19998955    -0.13800
C678        C  0.30525747  0.21238962  0.19217268    -0.13800
C679        C  0.29530540  0.19382663  0.17531404     0.08300
C680        C  0.26537666  0.18846442  0.16632883    -0.13800
H681        H  0.22246014  0.19609294  0.16701686     0.12300
H682        H  0.29426674  0.23931985  0.21296084     0.12300
H683        H  0.32829569  0.21712287  0.19939325     0.12300
H684        H  0.25704885  0.17422033  0.15330743     0.12300
C685        C  0.08136250  0.42173867  0.44096189    -0.13800
C686        C  0.11148199  0.42694801  0.44968367     0.08300
C687        C  0.12092008  0.44420793  0.46701287    -0.13800
C688        C  0.10098198  0.45630374  0.47527653    -0.13800
C689        C  0.07118791  0.45148483  0.46638984     0.08300
C690        C  0.06148750  0.43388621  0.44920611    -0.13800
H691        H  0.07297477  0.40831916  0.42773419     0.12300
H692        H  0.14388135  0.44878944  0.47420142     0.12300
H693        H  0.10908199  0.46967425  0.48856260     0.12300
H694        H  0.03850374  0.42950989  0.44206373     0.12300
C695        C  0.17103576  0.31760932  0.32819425    -0.16900
C696        C  0.19050991  0.30939538  0.31772689    -0.32100
H697        H  0.14775363  0.31524435  0.32242545     0.12100
H698        H  0.21394412  0.31198808  0.32342447     0.12700
C699        C  0.98289458  0.72730134  0.20593163    -0.13800
C700        C  0.00840835  0.75640911  0.19685843     0.08300
C701        C  0.00073556  0.76506798  0.17934682    -0.13800
C702        C  0.96851872  0.74538535  0.17120522    -0.13800
C703        C  0.94302906  0.71643434  0.18030539     0.08300
C704        C  0.95058425  0.70756092  0.19775470    -0.13800
H705        H  0.98769214  0.71970349  0.21938706     0.12300
H706        H  0.01946032  0.78712612  0.17179352     0.12300
H707        H  0.96360787  0.75294079  0.15773892     0.12300
H708        H  0.93151366  0.68534046  0.20512513     0.12300
C709        C  0.24120440  0.00582594  0.17731813    -0.13800
C710        C  0.24934141  0.99850490  0.19503768     0.08300
C711        C  0.27844144  0.02388055  0.20442110    -0.13800
C712        C  0.29895279  0.05566725  0.19625284    -0.13800
C713        C  0.29087018  0.06281994  0.17850943     0.08300
C714        C  0.26173685  0.03760314  0.16915125    -0.13800
H715        H  0.21913425  0.98704492  0.16959746     0.12300
H716        H  0.28555514  0.01941405  0.21810273     0.12300
H717        H  0.32126223  0.07457330  0.20381805     0.12300
H718        H  0.25482575  0.04233423  0.15544514     0.12300
C719        C  0.38011802  0.91571465  0.44019922    -0.13800
C720        C  0.35435019  0.88656654  0.44910053     0.08300
C721        C  0.36159067  0.87776056  0.46670170    -0.13800
C722        C  0.39377537  0.89722645  0.47500765    -0.13800
C723        C  0.41959303  0.92606428  0.46596927     0.08300
C724        C  0.41230240  0.93519094  0.44852065    -0.13800
H725        H  0.37569323  0.92348214  0.42670360     0.12300
H726        H  0.34259100  0.85568112  0.47413451     0.12300
H727        H  0.39848957  0.88948602  0.48846795     0.12300
H728        H  0.43159961  0.95729032  0.44116675     0.12300
C729        C  0.08670398  0.61806970  0.43893493    -0.13800
C730        C  0.11250144  0.64533178  0.44926231     0.08300
C731        C  0.11726476  0.64012631  0.46814353    -0.13800
C732        C  0.09701197  0.60836006  0.47642695    -0.13800
C733        C  0.07142792  0.58110062  0.46604774     0.08300
C734        C  0.06637986  0.58634449  0.44724026    -0.13800
H735        H  0.08236111  0.62094449  0.42435015     0.12300
H736        H  0.13657075  0.66054415  0.47662348     0.12300
H737        H  0.10136658  0.60519388  0.49099043     0.12300
H738        H  0.04690782  0.56581409  0.43884981     0.12300
C739        C  0.17605193  0.80706489  0.32642089    -0.16900
C740        C  0.19539031  0.83360052  0.31534422    -0.32100
H741        H  0.15175228  0.78656188  0.32130773     0.12100
H742        H  0.21981112  0.85401252  0.32038961     0.12700
C743        C  0.95852262  0.21580042  0.19911406    -0.13800
C744        C  0.95114314  0.20343732  0.18063925     0.08300
C745        C  0.97755217  0.20529237  0.16947018    -0.13800
C746        C  0.01041654  0.21835955  0.17673597    -0.13800
C747        C  0.01768902  0.22969858  0.19541572     0.08300
C748        C  0.99143734  0.22874843  0.20643875    -0.13800
H749        H  0.93871346  0.21483388  0.20804009     0.12300
H750        H  0.97279729  0.19636867  0.15509108     0.12300
H751        H  0.02990483  0.21910479  0.16767181     0.12300
H752        H  0.99594770  0.23731067  0.22085325     0.12300
C753        C  0.83068885  0.04515301  0.17677803    -0.13800
C754        C  0.82624403  0.07033820  0.18570639     0.08300
C755        C  0.81179124  0.06394408  0.20367089    -0.13800
C756        C  0.80201918  0.03295834  0.21250828    -0.13800
C757        C  0.80652026  0.00772902  0.20356742     0.08300
C758        C  0.82093839  0.01424677  0.18558282    -0.13800
H759        H  0.84165797  0.04924277  0.16291325     0.12300
H760        H  0.80801033  0.08287012  0.21091816     0.12300
H761        H  0.79115331  0.02900387  0.22636989     0.12300
H762        H  0.82462571  0.99550165  0.17812885     0.12300
C763        C  0.10416002  0.39568148  0.87163981    -0.13800
C764        C  0.10841167  0.42473642  0.86223076     0.08300
C765        C  0.12685372  0.43402521  0.84537108    -0.13800
C766        C  0.14054063  0.41477363  0.83809120    -0.13800
C767        C  0.13619202  0.38573701  0.84747219     0.08300
C768        C  0.11791879  0.37642754  0.86435078    -0.13800
H769        H  0.09014700  0.38760366  0.88462094     0.12300
H770        H  0.13086873  0.45617586  0.83766586     0.12300
H771        H  0.15449509  0.42265599  0.82505399     0.12300
H772        H  0.11403806  0.35410982  0.87189588     0.12300
C773        C  0.89442222  0.55264459  0.13213120    -0.13800
C774        C  0.90512767  0.55753318  0.11337607     0.08300
C775        C  0.90471690  0.58384751  0.10323991    -0.13800
C776        C  0.89352708  0.60449999  0.11162515    -0.13800
C777        C  0.88243045  0.59919959  0.13029576     0.08300
C778        C  0.88312703  0.57314244  0.14045945    -0.13800
H779        H  0.89471296  0.53300363  0.14050855     0.12300
H780        H  0.91260716  0.58833737  0.08876327     0.12300
H781        H  0.89325287  0.62438758  0.10342526     0.12300
H782        H  0.87499673  0.56857527  0.15492105     0.12300
C783        C  0.88697716  0.30704335  0.13267967    -0.13800
C784        C  0.90041166  0.31327049  0.11447085     0.08300
C785        C  0.90400059  0.28771360  0.10523196    -0.13800
C786        C  0.89447956  0.25678148  0.11401368    -0.13800
C787        C  0.88113456  0.25070849  0.13221301     0.08300
C788        C  0.87745226  0.27614088  0.14143654    -0.13800
H789        H  0.88381719  0.32595637  0.14031317     0.12300
H790        H  0.91415026  0.29139432  0.09121229     0.12300
H791        H  0.89761285  0.23764939  0.10653794     0.12300
H792        H  0.86726871  0.27224828  0.15548798     0.12300
C793        C  0.00006059  0.49976616  0.97972104    -0.16900
C794        C  0.99374148  0.47303857  0.99041435    -0.32100
H795        H  0.99683696  0.52027866  0.98536733     0.12100
H796        H  0.99689742  0.45249888  0.98475110     0.12700
C797        C  0.55509132  0.86358328  0.85155311    -0.13800
C798        C  0.55847463  0.87033527  0.87089121     0.08300
C799        C  0.58530395  0.86994066  0.88061621    -0.13800
C800        C  0.60810971  0.86280811  0.87120067    -0.13800
C801        C  0.60444289  0.85581565  0.85190352     0.08300
C802        C  0.57773590  0.85631083  0.84218905    -0.13800
H803        H  0.53506275  0.86399768  0.84351031     0.12300
H804        H  0.58861363  0.87478983  0.89552194     0.12300
H805        H  0.62840678  0.86246960  0.87906289     0.12300
H806        H  0.57436881  0.85121924  0.82728102     0.12300
C807        C  0.42359857  0.08719113  0.10755958    -0.13800
C808        C  0.44814210  0.08569804  0.11894561     0.08300
C809        C  0.45311998  0.09856640  0.13731028    -0.13800
C810        C  0.43422039  0.11295475  0.14408804    -0.13800
C811        C  0.40989676  0.11470148  0.13265312     0.08300
C812        C  0.40464029  0.10153494  0.11435469    -0.13800
H813        H  0.41931561  0.07780320  0.09329063     0.12300
H814        H  0.47149137  0.09742737  0.14653008     0.12300
H815        H  0.43859299  0.12258881  0.15832835     0.12300
H816        H  0.38605551  0.10253453  0.10522369     0.12300
C817        C  0.69933206  0.10789714  0.13729245    -0.13800
C818        C  0.69171892  0.09091839  0.11987767     0.08300
C819        C  0.71736997  0.08746037  0.11074539    -0.13800
C820        C  0.74984783  0.10094807  0.11873471    -0.13800
C821        C  0.75742378  0.11819052  0.13604028     0.08300
C822        C  0.73175849  0.12135900  0.14525993    -0.13800
H823        H  0.68040045  0.11101330  0.14488422     0.12300
H824        H  0.71260988  0.07457707  0.09735807     0.12300
H825        H  0.76908288  0.09802205  0.11127915     0.12300
H826        H  0.73674398  0.13443579  0.15862613     0.12300
C827        C  0.50448677  0.95714631  0.00609315    -0.16900
C828        C  0.47554424  0.94923119  0.99684058    -0.32100
H829        H  0.52348731  0.95238531  0.99973115     0.12100
H830        H  0.45650101  0.95394357  0.00319788     0.12700
C831        C  0.07235164  0.78989127  0.77312474    -0.13800
C832        C  0.07798833  0.80205252  0.79166814     0.08300
C833        C  0.05345320  0.80771492  0.80041840    -0.13800
C834        C  0.02408901  0.80166956  0.79083255    -0.13800
C835        C  0.01846928  0.78979799  0.77223067     0.08300
C836        C  0.04285878  0.78379217  0.76350357    -0.13800
H837        H  0.09082122  0.78530543  0.76599823     0.12300
H838        H  0.05695294  0.81698948  0.81471382     0.12300
H839        H  0.00579731  0.80620520  0.79814656     0.12300
H840        H  0.03947586  0.77478561  0.74917705     0.12300
C841        C  0.22440672  0.92877604  0.78176685    -0.13800
C842        C  0.21070814  0.92182016  0.79990538     0.08300
C843        C  0.21154586  0.94835437  0.81058535    -0.13800
C844        C  0.22512276  0.98100057  0.80312108    -0.13800
C845        C  0.23800590  0.98778226  0.78477924     0.08300
C846        C  0.23788822  0.96138727  0.77428094    -0.13800
H847        H  0.22413407  0.90884407  0.77318172     0.12300
H848        H  0.20145976  0.94385371  0.82467181     0.12300
H849        H  0.22526202  0.00078354  0.81174633     0.12300
H850        H  0.24744870  0.96556449  0.76010751     0.12300
C851        C  0.10340203  0.71747532  0.85719175    -0.13800
C852        C  0.12289518  0.72664945  0.84076022     0.08300
C853        C  0.13004836  0.70290442  0.83221614    -0.13800
C854        C  0.11872157  0.67098032  0.84021758    -0.13800
C855        C  0.09986998  0.66201829  0.85691976     0.08300
C856        C  0.09196624  0.68551552  0.86516095    -0.13800
H857        H  0.09733388  0.73516731  0.86405881     0.12300
H858        H  0.14507652  0.70923918  0.81954388     0.12300
H859        H  0.12533821  0.65369307  0.83340863     0.12300
H860        H  0.07720182  0.67953822  0.87788168     0.12300
C861        C  0.25866072  0.86061060  0.86759684    -0.13800
C862        C  0.25306990  0.84650019  0.84948340     0.08300
C863        C  0.27731687  0.83937693  0.84168807    -0.13800
C864        C  0.30654649  0.84624078  0.85176211    -0.13800
C865        C  0.31230781  0.86050354  0.86987015     0.08300
C866        C  0.28795404  0.86755423  0.87767094    -0.07500
H867        H  0.24042835  0.86639190  0.87400442     0.12300
H868        H  0.27366029  0.82831617  0.82780649     0.12300
H869        H  0.32443553  0.84012391  0.84528628     0.12300
H870        H  0.29148962  0.87866418  0.89150675     0.12300
C871        C  0.38242057  0.43452698  0.47829169    -0.13800
C872        C  0.40793756  0.43136458  0.46887303     0.08300
C873        C  0.40055683  0.41552633  0.45117993    -0.13800
C874        C  0.36866150  0.40406477  0.44283071    -0.13800
C875        C  0.34343840  0.40822197  0.45198282     0.08300
C876        C  0.35056026  0.42305498  0.46997170    -0.13800
H877        H  0.38722783  0.44644280  0.49199422     0.12300
H878        H  0.41965791  0.41257735  0.44359263     0.12300
H879        H  0.36419312  0.39259231  0.42905152     0.12300
H880        H  0.33184544  0.42642619  0.47763118     0.12300
C881        C  0.48840574  0.36168473  0.51091106    -0.13800
C882        C  0.48055052  0.38525934  0.51896787     0.08300
C883        C  0.46534912  0.37852012  0.53673748    -0.13800
C884        C  0.45828006  0.34885547  0.54628047    -0.13800
C885        C  0.46633315  0.32531122  0.53827785     0.08300
C886        C  0.48143458  0.33212347  0.52044530    -0.13800
H887        H  0.50023300  0.36617261  0.49726141     0.12300
H888        H  0.45894114  0.39619975  0.54330902     0.12300
H889        H  0.44652089  0.34452537  0.55991409     0.12300
H890        H  0.48819951  0.31485693  0.51376227     0.12300
C891        C  0.62671340  0.51298285  0.50456326    -0.13800
C892        C  0.60119499  0.51626446  0.51389869     0.08300
C893        C  0.60860741  0.53241295  0.53151388    -0.13800
C894        C  0.64073744  0.54461428  0.53972422    -0.13800
C895        C  0.66617249  0.54093380  0.53049930     0.08300
C896        C  0.65879477  0.52517209  0.51274963    -0.13800
H897        H  0.62183844  0.50069390  0.49096332     0.12300
H898        H  0.58944750  0.53529040  0.53908248     0.12300
H899        H  0.64534442  0.55651137  0.55339729     0.12300
H900        H  0.67766369  0.52208058  0.50506792     0.12300
C901        C  0.54010670  0.56709907  0.44500939    -0.13800
C902        C  0.52816793  0.56221799  0.46350503     0.08300
C903        C  0.52363644  0.58756709  0.47219072    -0.13800
C904        C  0.53137490  0.61740129  0.46268343    -0.13800
C905        C  0.54383947  0.62258956  0.44426027     0.08300
C906        C  0.54781632  0.59691638  0.43548857    -0.13800
H907        H  0.54359489  0.54789851  0.43786761     0.12300
H908        H  0.51430689  0.58448876  0.48640692     0.12300
H909        H  0.52794777  0.63647201  0.46996053     0.12300
H910        H  0.55697029  0.59971520  0.42127412     0.12300
C911        C  0.27449491  0.38058503  0.86804998    -0.13800
C912        C  0.26725531  0.38787257  0.85008227     0.08300
C913        C  0.29258171  0.41659297  0.84074307    -0.13800
C914        C  0.32422161  0.43771488  0.84917907    -0.13800
C915        C  0.33151306  0.43078565  0.86723813     0.08300
C916        C  0.30626385  0.40179189  0.87652981    -0.13800
H917        H  0.25555209  0.35857709  0.87561606     0.12300
H918        H  0.28795931  0.42291821  0.82686585     0.12300
H919        H  0.34283887  0.45949041  0.84139899     0.12300
H920        H  0.31080823  0.39551741  0.89041346     0.12300
C921        C  0.56456121  0.67981767  0.84428862    -0.13800
C922        C  0.57500663  0.67147176  0.86101976     0.08300
C923        C  0.60644512  0.69552813  0.86902577    -0.13800
C924        C  0.62646150  0.72734892  0.86080148    -0.13800
C925        C  0.61562649  0.73590817  0.84433350     0.08300
C926        C  0.58465975  0.71166289  0.83603400    -0.13800
H927        H  0.54068283  0.66203132  0.83759519     0.12300
H928        H  0.61558661  0.69018796  0.88181613     0.12300
H929        H  0.65025696  0.74544276  0.86752548     0.12300
H930        H  0.57558618  0.71751529  0.82334621     0.12300
C931        C  0.69656000  0.55093842  0.13101518    -0.13800
C932        C  0.68974113  0.55889876  0.11309284     0.08300
C933        C  0.71547763  0.58794790  0.10409701    -0.13800
C934        C  0.74722159  0.60827470  0.11271606    -0.13800
C935        C  0.75401317  0.60005509  0.13053947     0.08300
C936        C  0.72826439  0.57122400  0.13960551    -0.13800
H937        H  0.67762043  0.52889687  0.13849318     0.12300
H938        H  0.71130798  0.59507076  0.09035582     0.12300
H939        H  0.76651288  0.63036031  0.10535080     0.12300
H940        H  0.73262250  0.56417452  0.15335243     0.12300
C941        C  0.46509404  0.30417847  0.12894626    -0.13800
C942        C  0.45525137  0.31215270  0.11190866     0.08300
C943        C  0.42507025  0.28724254  0.10314693    -0.13800
C944        C  0.40515440  0.25528640  0.11126226    -0.13800
C945        C  0.41486117  0.24749666  0.12836533     0.08300
C946        C  0.44510374  0.27223186  0.13708933    -0.13800
H947        H  0.48825277  0.32248791  0.13606492     0.12300
H948        H  0.41646032  0.29236219  0.09009454     0.12300
H949        H  0.38190481  0.23681821  0.10422027     0.12300
H950        H  0.45331992  0.26696466  0.15026161     0.12300
C951        C  0.52783654  0.50434685  0.98041339    -0.16900
C952        C  0.50963355  0.47698082  0.99117604    -0.32100
H953        H  0.55299794  0.52412672  0.98493941     0.12100
H954        H  0.48464662  0.45702377  0.98653604     0.12700
loop_ 
_geom_bond_atom_site_label_1 
_geom_bond_atom_site_label_2 
_geom_bond_distance 
_geom_bond_site_symmetry_2 
_ccdc_geom_bond_type 
N1            N2   1.318       .  A
N1            C5   1.342       .  A
N1           Cu9   2.060       .  S
N2            C3   1.344       .  A
N2           Cu8   2.065       .  S
C3            C4   1.389       .  A
C3            H6   1.081       .  S
C4            C5   1.387       .  A
C4          C942   1.484       .  S
C5            H7   1.081       .  S
Cu8          N11   2.065       .  S
Cu9          N19   2.061       .  S
Cu10         N12   2.089       .  S
Cu10         N18   2.089       .  S
N11          N12   1.322       .  A
N11          C15   1.342       .  A
N12          C13   1.347       .  A
C13          C14   1.392       .  A
C13          H16   1.081       .  S
C14          C15   1.386       .  A
C14         C932   1.489       .  S
C15          H17   1.081       .  S
N18          N19   1.322       .  A
N18          C22   1.348       .  A
N19          C20   1.342       .  A
C20          C21   1.378       .  A
C20          H23   1.082       .  S
C21          C22   1.390       .  A
C21         C952   1.477   1_554  S
C22          H24   1.081       .  S
N25          N26   1.319       .  A
N25          C29   1.343       .  A
N25         Cu33   2.063       .  S
N26          C27   1.343       .  A
N26         Cu32   2.066       .  S
C27          C28   1.389       .  A
C27          H30   1.081       .  S
C28          C29   1.389       .  A
C28         C922   1.485       .  S
C29          H31   1.081       .  S
Cu32         N35   2.067       .  S
Cu33         N43   2.064       .  S
Cu34         N36   2.090       .  S
Cu34         N42   2.091       .  S
N35          N36   1.321       .  A
N35          C39   1.341       .  A
N36          C37   1.349       .  A
C37          C38   1.393       .  A
C37          H40   1.081       .  S
C38          C39   1.386       .  A
C38         C915   1.490       .  S
C39          H41   1.080       .  S
N42          N43   1.323       .  A
N42          C46   1.347       .  A
N43          C44   1.343       .  A
C44          C45   1.378       .  A
C44          H47   1.082       .  S
C45          C46   1.390       .  A
C45         C951   1.478       .  S
C46          H48   1.081       .  S
O49         Cu57   2.002       .  S
O49          C59   1.278       .  A
O50         Cu57   2.002       .  S
O50          C60   1.278       .  A
O51         Cu57   2.004       .  S
O51          C61   1.278       .  A
O52         Cu57   2.005       .  S
O52          C62   1.278       .  A
O53         Cu58   2.005       .  S
O53          C62   1.278       .  A
O54         Cu58   2.002       .  S
O54          C61   1.278       .  A
O55         Cu58   2.004       .  S
O55          C60   1.278       .  A
O56         Cu58   2.005       .  S
O56          C59   1.278       .  A
Cu57        Cu58   2.372       .  S
C59         C902   1.478       .  S
C60         C882   1.478       .  S
C61         C872   1.478       .  S
C62         C892   1.478       .  S
O63         Cu71   1.997       .  S
O63          C73   1.277       .  A
O64         Cu71   1.998       .  S
O64          C74   1.277       .  A
O65         Cu71   2.007       .  S
O65          C75   1.278       .  A
O66         Cu71   2.007       .  S
O66          C76   1.278       .  A
O67         Cu72   1.998       .  S
O67          C76   1.277       .  A
O68         Cu72   1.999       .  S
O68          C75   1.277       .  A
O69         Cu72   2.010       .  S
O69          C74   1.279       .  A
O70         Cu72   2.011       .  S
O70          C73   1.278       .  A
Cu71        Cu72   2.372       .  S
C73         C832   1.478       .  S
C74         C862   1.478       .  S
C75         C842   1.477       .  S
C76         C852   1.477       .  S
N77          N78   1.320       .  A
N77          C81   1.346       .  A
N77         Cu85   2.078       .  S
N78          C79   1.341       .  A
N78         Cu84   2.060       .  S
C79          C80   1.386       .  A
C79          H82   1.081       .  S
C80          C81   1.391       .  A
C80         C818   1.486       .  S
C81          H83   1.081       .  S
Cu84         N87   2.059       .  S
Cu85         N95   2.078       .  S
Cu86         N88   2.056       .  S
Cu86         N94   2.057   1_545  S
N87          N88   1.319       .  A
N87          C91   1.342       .  A
N88          C89   1.342       .  A
C89          C90   1.385       .  A
C89          H92   1.081       .  S
C90          C91   1.385       .  A
C90         C808   1.476       .  S
C91          H93   1.081       .  S
N94          N95   1.322   1_565  A
N94          C98   1.342       .  A
N95          C96   1.345   1_545  A
C96          C97   1.383       .  A
C96          H99   1.082       .  S
C97          C98   1.383       .  A
C97         C827   1.473       .  S
C98         H100   1.081       .  S
N101        N102   1.320       .  A
N101        C105   1.345       .  A
N101       Cu109   2.077       .  S
N102        C103   1.341       .  A
N102       Cu108   2.059       .  S
C103        C104   1.385       .  A
C103        H106   1.081       .  S
C104        C105   1.390       .  A
C104        C865   1.484       .  S
C105        H107   1.081       .  S
Cu108       N111   2.058       .  S
Cu109       N119   2.078       .  S
Cu110       N112   2.059       .  S
Cu110       N118   2.060       .  S
N111        N112   1.319       .  A
N111        C115   1.340       .  A
N112        C113   1.343       .  A
C113        C114   1.387       .  A
C113        H116   1.081       .  S
C114        C115   1.386       .  A
C114        C798   1.480       .  S
C115        H117   1.081       .  S
N118        N119   1.322       .  A
N118        C122   1.341       .  A
N119        C120   1.345       .  A
C120        C121   1.383       .  A
C120        H123   1.082       .  S
C121        C122   1.383       .  A
C121        C828   1.474       .  S
C122        H124   1.081       .  S
N125        N126   1.319       .  A
N125        C129   1.342       .  A
N125       Cu133   2.058       .  S
N126        C127   1.342       .  A
N126       Cu132   2.063       .  S
C127        C128   1.388       .  A
C127        H130   1.081       .  S
C128        C129   1.387       .  A
C128        C784   1.482       .  S
C129        H131   1.081       .  S
Cu132       N135   2.064       .  S
Cu133       N143   2.059       .  S
Cu134       N136   2.075       .  S
Cu134       N142   2.075       .  S
N135        N136   1.321       .  A
N135        C139   1.341       .  A
N136        C137   1.345       .  A
C137        C138   1.389       .  A
C137        H140   1.081       .  S
C138        C139   1.386       .  A
C138        C774   1.484       .  S
C139        H141   1.081       .  S
N142        N143   1.322       .  A
N142        C146   1.345       .  A
N143        C144   1.342       .  A
C144        C145   1.378       .  A
C144        H147   1.082       .  S
C145        C146   1.387       .  A
C145        C794   1.473   1_554  S
C146        H148   1.081       .  S
N149        N150   1.319       .  A
N149        C153   1.342       .  A
N149       Cu157   2.061       .  S
N150        C151   1.344       .  A
N150       Cu156   2.067       .  S
C151        C152   1.389       .  A
C151        H154   1.081       .  S
C152        C153   1.387       .  A
C152        C855   1.484       .  S
C153        H155   1.081       .  S
Cu156       N159   2.067       .  S
Cu157       N167   2.061       .  S
Cu158       N160   2.077       .  S
Cu158       N166   2.076       .  S
N159        N160   1.321       .  A
N159        C163   1.342       .  A
N160        C161   1.345       .  A
C161        C162   1.390       .  A
C161        H164   1.081       .  S
C162        C163   1.387       .  A
C162        C764   1.487       .  S
C163        H165   1.081       .  S
N166        N167   1.322       .  A
N166        C170   1.345       .  A
N167        C168   1.343       .  A
C168        C169   1.379       .  A
C168        H171   1.082       .  S
C169        C170   1.387       .  A
C169        C793   1.474       .  S
C170        H172   1.081       .  S
O173       Cu181   2.003       .  S
O173        C183   1.278       .  A
O174       Cu181   2.005       .  S
O174        C184   1.279       .  A
O175       Cu181   1.999       .  S
O175        C185   1.277       .  A
O176       Cu181   1.997       .  S
O176        C186   1.277       .  A
O177       Cu182   2.013       .  S
O177        C186   1.279       .  A
O178       Cu182   2.011       .  S
O178        C185   1.279       .  A
O179       Cu182   2.001       .  S
O179        C184   1.277       .  A
O180       Cu182   1.998       .  S
O180        C183   1.277       .  A
Cu181      Cu182   2.372       .  S
C183        C787   1.476       .  S
C184        C754   1.477       .  S
C185        C821   1.479       .  S
C186        C744   1.478       .  S
N187        N188   1.319       .  A
N187        C191   1.343       .  A
N187       Cu195   2.063       .  S
N188        C189   1.343       .  A
N188       Cu194   2.065       .  S
C189        C190   1.388       .  A
C189        H192   1.081       .  S
C190        C191   1.388       .  A
C190        C730   1.484       .  S
C191        H193   1.081       .  S
Cu194       N197   2.066       .  S
Cu195       N205   2.063       .  S
Cu196       N198   2.094       .  S
Cu196       N204   2.094       .  S
N197        N198   1.322       .  A
N197        C201   1.342       .  A
N198        C199   1.348       .  A
C199        C200   1.393       .  A
C199        H202   1.081       .  S
C200        C201   1.386       .  A
C200        C720   1.491       .  S
C201        H203   1.081       .  S
N204        N205   1.323       .  A
N204        C208   1.349       .  A
N205        C206   1.342       .  A
C206        C207   1.377       .  A
C206        H209   1.082       .  S
C207        C208   1.390       .  A
C207        C739   1.478       .  S
C208        H210   1.081       .  S
N211        N212   1.318       .  A
N211        C215   1.342       .  A
N211       Cu219   2.059       .  S
N212        C213   1.343       .  A
N212       Cu218   2.063       .  S
C213        C214   1.388       .  A
C213        H216   1.081       .  S
C214        C215   1.387       .  A
C214        C710   1.483       .  S
C215        H217   1.081       .  S
Cu218       N221   2.063       .  S
Cu219       N229   2.060       .  S
Cu220       N222   2.092       .  S
Cu220       N228   2.092       .  S
N221        N222   1.321       .  A
N221        C225   1.341       .  A
N222        C223   1.348       .  A
C223        C224   1.393       .  A
C223        H226   1.081       .  S
C224        C225   1.386       .  A
C224        C700   1.490       .  S
C225        H227   1.081       .  S
N228        N229   1.323       .  A
N228        C232   1.348       .  A
N229        C230   1.343       .  A
C230        C231   1.378       .  A
C230        H233   1.082       .  S
C231        C232   1.390       .  A
C231        C740   1.479       .  S
C232        H234   1.081       .  S
N235        N236   1.320       .  A
N235        C239   1.345       .  A
N235       Cu243   2.075       .  S
N236        C237   1.341       .  A
N236       Cu242   2.064       .  S
C237        C238   1.386       .  A
C237        H240   1.081       .  S
C238        C239   1.390       .  A
C238        C875   1.485       .  S
C239        H241   1.081       .  S
Cu242       N245   2.064       .  S
Cu243       N253   2.076       .  S
Cu244       N246   2.065       .  S
Cu244       N252   2.065       .  S
N245        N246   1.319       .  A
N245        C249   1.343       .  A
N246        C247   1.343       .  A
C247        C248   1.389       .  A
C247        H250   1.081       .  S
C248        C249   1.388       .  A
C248        C686   1.484       .  S
C249        H251   1.081       .  S
N252        N253   1.323       .  A
N252        C256   1.342       .  A
N253        C254   1.346       .  A
C254        C255   1.387       .  A
C254        H257   1.081       .  S
C255        C256   1.378       .  A
C255        C695   1.473       .  S
C256        H258   1.082       .  S
N259        N260   1.321       .  A
N259        C263   1.344       .  A
N259       Cu267   2.071       .  S
N260        C261   1.342       .  A
N260       Cu266   2.071       .  S
C261        C262   1.388       .  A
C261        H264   1.081       .  S
C262        C263   1.388       .  A
C262        C747   1.485       .  S
C263        H265   1.081       .  S
Cu266       N269   2.070       .  S
Cu267       N277   2.071       .  S
Cu268       N270   2.059       .  S
Cu268       N276   2.059       .  S
N269        N270   1.320       .  A
N269        C273   1.345       .  A
N270        C271   1.340       .  A
C271        C272   1.386       .  A
C271        H274   1.081       .  S
C272        C273   1.389       .  A
C272        C676   1.483       .  S
C273        H275   1.081       .  S
N276        N277   1.321       .  A
N276        C280   1.343       .  A
N277        C278   1.344       .  A
C278        C279   1.387       .  A
C278        H281   1.081       .  S
C279        C280   1.380       .  A
C279        C696   1.475       .  S
C280        H282   1.082       .  S
O283       Cu291   2.006       .  S
O283        C293   1.278       .  A
O284       Cu291   2.004       .  S
O284        C294   1.278       .  A
O285       Cu291   1.994       .  S
O285        C295   1.277       .  A
O286       Cu291   1.996       .  S
O286        C296   1.277       .  A
O287       Cu292   2.004       .  S
O287        C296   1.278       .  A
O288       Cu292   2.004       .  S
O288        C295   1.278       .  A
O289       Cu292   2.001       .  S
O289        C294   1.277       .  A
O290       Cu292   2.002       .  S
O290        C293   1.278       .  A
Cu291      Cu292   2.372       .  S
C293        C945   1.478       .  S
C294        C713   1.477       .  S
C295        C811   1.474       .  S
C296        C679   1.476       .  S
O297       Cu305   1.998   1_455  S
O297        C307   1.277       .  A
O298       Cu305   1.999       .  S
O298        C308   1.277       .  A
O299       Cu305   2.003   1_455  S
O299        C309   1.278       .  A
O300       Cu305   2.000       .  S
O300        C310   1.277       .  A
O301       Cu306   2.009   1_655  S
O301        C310   1.278       .  A
O302       Cu306   2.010       .  S
O302        C309   1.279       .  A
O303       Cu306   2.006   1_655  S
O303        C308   1.278       .  A
O304       Cu306   2.009       .  S
O304        C307   1.279       .  A
Cu305      Cu306   2.372   1_655  S
C307        C689   1.478       .  S
C308        C659   1.477       .  S
C309        C733   1.479       .  S
C310        C666   1.479       .  S
N311        N312   1.320       .  A
N311        C315   1.345       .  A
N311       Cu319   2.076       .  S
N312        C313   1.341       .  A
N312       Cu318   2.060       .  S
C313        C314   1.385       .  A
C313        H316   1.081       .  S
C314        C315   1.390       .  A
C314        C895   1.484       .  S
C315        H317   1.081       .  S
Cu318       N321   2.059       .  S
Cu319       N329   2.076       .  S
Cu320       N322   2.063       .  S
Cu320       N328   2.064       .  S
N321        N322   1.319       .  A
N321        C325   1.342       .  A
N322        C323   1.343       .  A
C323        C324   1.387       .  A
C323        H326   1.081       .  S
C324        C325   1.386       .  A
C324        C656   1.480       .  S
C325        H327   1.081       .  S
N328        N329   1.322       .  A
N328        C332   1.343       .  A
N329        C330   1.345       .  A
C330        C331   1.386       .  A
C330        H333   1.081       .  S
C331        C332   1.379       .  A
C331        C652   1.474       .  S
C332        H334   1.082       .  S
N335        N336   1.320       .  A
N335        C339   1.345       .  A
N335       Cu343   2.069       .  S
N336        C337   1.341       .  A
N336       Cu342   2.062       .  S
C337        C338   1.386       .  A
C337        H340   1.081       .  S
C338        C339   1.388       .  A
C338        C835   1.482   1_655  S
C339        H341   1.081       .  S
Cu342       N345   2.062       .  S
Cu343       N353   2.070       .  S
Cu344       N346   2.071       .  S
Cu344       N352   2.071       .  S
N345        N346   1.319       .  A
N345        C349   1.342       .  A
N346        C347   1.344       .  A
C347        C348   1.389       .  A
C347        H350   1.081       .  S
C348        C349   1.387       .  A
C348        C642   1.485       .  S
C349        H351   1.081       .  S
N352        N353   1.322       .  A
N352        C356   1.344       .  A
N353        C354   1.344       .  A
C354        C355   1.385       .  A
C354        H357   1.081       .  S
C355        C356   1.381       .  A
C355        C651   1.475       .  S
C356        H358   1.082       .  S
O359       Cu367   2.002       .  S
O359        C369   1.277       .  A
O360       Cu367   1.994       .  S
O360        C370   1.277       .  A
O361       Cu367   2.008       .  S
O361        C371   1.279       .  A
O362       Cu367   2.009       .  S
O362        C372   1.278       .  A
O363       Cu368   1.999       .  S
O363        C372   1.277       .  A
O364       Cu368   2.001       .  S
O364        C371   1.277       .  A
O365       Cu368   2.006       .  S
O365        C370   1.278       .  A
O366       Cu368   2.007       .  S
O366        C369   1.278       .  A
Cu367      Cu368   2.372       .  S
C369        C645   1.479       .  S
C370        C801   1.474       .  S
C371        C632   1.478       .  S
C372        C925   1.478       .  S
N373        N374   1.321       .  A
N373        C377   1.347       .  A
N373       Cu381   2.087       .  S
N374        C375   1.343       .  A
N374       Cu380   2.069       .  S
C375        C376   1.387       .  A
C375        H378   1.081       .  S
C376        C377   1.391       .  A
C376        C618   1.490       .  S
C377        H379   1.081       .  S
Cu380       N383   2.068       .  S
Cu381       N391   2.087       .  S
Cu382       N384   2.064       .  S
Cu382       N390   2.064       .  S
N383        N384   1.319       .  A
N383        C387   1.343       .  A
N384        C385   1.343       .  A
C385        C386   1.387       .  A
C385        H388   1.081       .  S
C386        C387   1.388       .  A
C386        C669   1.483       .  S
C387        H389   1.081       .  S
N390        N391   1.323       .  A
N390        C394   1.343       .  A
N391        C392   1.347       .  A
C392        C393   1.389       .  A
C392        H395   1.081       .  S
C393        C394   1.379       .  A
C393        C627   1.478       .  S
C394        H396   1.082       .  S
N397        N398   1.319       .  A
N397        C401   1.342       .  A
N397       Cu405   2.061       .  S
N398        C399   1.344       .  A
N398       Cu404   2.070       .  S
C399        C400   1.389       .  A
C399        H402   1.081       .  S
C400        C401   1.386       .  A
C400        C635   1.484   1_545  S
C401        H403   1.081       .  S
Cu404       N407   2.071       .  S
Cu405       N415   2.061       .  S
Cu406       N408   2.086       .  S
Cu406       N414   2.086       .  S
N407        N408   1.322       .  A
N407        C411   1.343       .  A
N408        C409   1.346       .  A
C409        C410   1.390       .  A
C409        H412   1.081       .  S
C410        C411   1.387       .  A
C410        C608   1.488   1_655  S
C411        H413   1.081       .  S
N414        N415   1.322       .  A
N414        C418   1.348       .  A
N415        C416   1.343       .  A
C416        C417   1.379       .  A
C416        H419   1.082       .  S
C417        C418   1.389       .  A
C417        C628   1.478       .  S
C418        H420   1.081       .  S
O421       Cu429   2.010       .  S
O421        C431   1.279       .  A
O422       Cu429   2.008       .  S
O422        C432   1.278       .  A
O423       Cu429   2.005       .  S
O423        C433   1.278       .  A
O424       Cu429   2.007       .  S
O424        C434   1.278       .  A
O425       Cu430   2.001       .  S
O425        C434   1.278       .  A
O426       Cu430   2.003       .  S
O426        C433   1.277       .  A
O427       Cu430   2.011       .  S
O427        C432   1.279       .  A
O428       Cu430   2.011       .  S
O428        C431   1.278       .  A
Cu429      Cu430   2.371       .  S
C431        C703   1.483       .  S
C432        C935   1.482       .  S
C433        C598   1.478       .  S
C434        C777   1.478       .  S
N435        N436   1.320       .  A
N435        C439   1.343       .  A
N435       Cu443   2.066       .  S
N436        C437   1.342       .  A
N436       Cu442   2.062       .  S
C437        C438   1.387       .  A
C437        H440   1.081       .  S
C438        C439   1.388       .  A
C438        C905   1.483       .  S
C439        H441   1.081       .  S
Cu442       N445   2.062       .  S
Cu443       N453   2.066       .  S
Cu444       N446   2.070       .  S
Cu444       N452   2.071       .  S
N445        N446   1.320       .  A
N445        C449   1.341       .  A
N446        C447   1.345       .  A
C447        C448   1.388       .  A
C447        H450   1.081       .  S
C448        C449   1.385       .  A
C448        C584   1.481       .  S
C449        H451   1.081       .  S
N452        N453   1.322       .  A
N452        C456   1.343       .  A
N453        C454   1.344       .  A
C454        C455   1.380       .  A
C454        H457   1.082       .  S
C455        C456   1.386       .  A
C455        C593   1.474       .  S
C456        H458   1.081       .  S
N459        N460   1.319       .  A
N459        C463   1.344       .  A
N459       Cu467   2.066       .  S
N460        C461   1.341       .  A
N460       Cu466   2.061       .  S
C461        C462   1.387       .  A
C461        H464   1.081       .  S
C462        C463   1.389       .  A
C462        C757   1.483   1_565  S
C463        H465   1.081       .  S
Cu466       N469   2.061       .  S
Cu467       N477   2.066       .  S
Cu468       N470   2.072       .  S
Cu468       N476   2.073       .  S
N469        N470   1.320       .  A
N469        C473   1.341       .  A
N470        C471   1.345       .  A
C471        C472   1.389       .  A
C471        H474   1.081       .  S
C472        C473   1.386       .  A
C472        C601   1.483       .  S
C473        H475   1.081       .  S
N476        N477   1.323       .  A
N476        C480   1.345       .  A
N477        C478   1.343       .  A
C478        C479   1.379       .  A
C478        H481   1.082       .  S
C479        C480   1.386       .  A
C479        C594   1.473       .  S
C480        H482   1.081       .  S
O483       Cu491   1.995       .  S
O483        C493   1.276   1_565  A
O484       Cu491   1.994       .  S
O484        C494   1.277       .  A
O485       Cu491   2.018       .  S
O485        C495   1.279   1_565  A
O486       Cu491   2.019       .  S
O486        C496   1.280       .  A
O487       Cu492   2.008       .  S
O487        C496   1.278       .  A
O488       Cu492   2.007   1_545  S
O488        C495   1.278       .  A
O489       Cu492   2.012       .  S
O489        C494   1.279       .  A
O490       Cu492   2.012   1_545  S
O490        C493   1.279       .  A
Cu491      Cu492   2.370       .  S
C493        C574   1.477       .  S
C494        C587   1.478       .  S
C495        C621   1.484       .  S
C496        C723   1.485       .  S
N497        N498   1.319       .  A
N497        C501   1.346       .  A
N497       Cu505   2.077       .  S
N498        C499   1.340       .  A
N498       Cu504   2.055       .  S
C499        C500   1.386       .  A
C499        H502   1.081       .  S
C500        C501   1.391       .  A
C500        C885   1.485       .  S
C501        H503   1.081       .  S
Cu504       N507   2.055       .  S
Cu505       N515   2.078       .  S
Cu506       N508   2.074       .  S
Cu506       N514   2.075       .  S
N507        N508   1.319       .  A
N507        C511   1.341       .  A
N508        C509   1.345       .  A
C509        C510   1.390       .  A
C509        H512   1.081       .  S
C510        C511   1.385       .  A
C510        C577   1.483       .  S
C511        H513   1.081       .  S
N514        N515   1.323       .  A
N514        C518   1.345       .  A
N515        C516   1.345       .  A
C516        C517   1.386       .  A
C516        H519   1.081       .  S
C517        C518   1.381       .  A
C517        C569   1.477       .  S
C518        H520   1.082       .  S
N521        N522   1.320       .  A
N521        C525   1.344       .  A
N521       Cu529   2.074       .  S
N522        C523   1.341       .  A
N522       Cu528   2.059       .  S
C523        C524   1.385       .  A
C523        H526   1.081       .  S
C524        C525   1.388       .  A
C524        C845   1.481   1_545  S
C525        H527   1.081       .  S
Cu528       N531   2.059       .  S
Cu529       N539   2.074       .  S
Cu530       N532   2.072       .  S
Cu530       N538   2.073       .  S
N531        N532   1.320       .  A
N531        C535   1.342       .  A
N532        C533   1.344       .  A
C533        C534   1.389       .  A
C533        H536   1.081       .  S
C534        C535   1.386       .  A
C534        C560   1.483       .  S
C535        H537   1.081       .  S
N538        N539   1.322       .  A
N538        C542   1.344       .  A
N539        C540   1.345       .  A
C540        C541   1.386       .  A
C540        H543   1.081       .  S
C541        C542   1.381       .  A
C541        C570   1.477       .  S
C542        H544   1.082       .  S
O545       Cu553   2.007       .  S
O545        C555   1.278       .  A
O546       Cu553   2.007       .  S
O546        C556   1.278       .  A
O547       Cu553   2.012       .  S
O547        C557   1.279       .  A
O548       Cu553   2.014       .  S
O548        C558   1.278       .  A
O549       Cu554   2.010       .  S
O549        C558   1.279       .  A
O550       Cu554   2.012       .  S
O550        C557   1.278       .  A
O551       Cu554   2.004       .  S
O551        C556   1.278       .  A
O552       Cu554   2.004       .  S
O552        C555   1.278       .  A
Cu553      Cu554   2.370       .  S
C555        C563   1.479       .  S
C556        C767   1.479       .  S
C557        C611   1.483       .  S
C558        C912   1.484       .  S
C559        C560   1.407       .  A
C559        C564   1.396       .  A
C559        H565   1.081       .  S
C560        C561   1.406       .  A
C561        C562   1.397       .  A
C561        H566   1.081       .  S
C562        C563   1.405       .  A
C562        H567   1.083       .  S
C563        C564   1.404       .  A
C564        H568   1.083       .  S
C569        C570   1.343       .  D
C569        H571   1.085       .  S
C570        H572   1.085       .  S
C573        C574   1.405       .  A
C573        C578   1.396       .  A
C573        H579   1.083       .  S
C574        C575   1.403       .  A
C575        C576   1.396       .  A
C575        H580   1.083       .  S
C576        C577   1.408       .  A
C576        H581   1.081       .  S
C577        C578   1.405       .  A
C578        H582   1.081       .  S
C583        C584   1.405       .  A
C583        C588   1.393       .  A
C583        H589   1.081       .  S
C584        C585   1.406       .  A
C585        C586   1.399       .  A
C585        H590   1.082       .  S
C586        C587   1.405       .  A
C586        H591   1.083       .  S
C587        C588   1.404       .  A
C588        H592   1.083       .  S
C593        C594   1.342       .  D
C593        H595   1.085       .  S
C594        H596   1.085       .  S
C597        C598   1.405       .  A
C597        C602   1.398       .  A
C597        H603   1.083       .  S
C598        C599   1.404       .  A
C599        C600   1.395       .  A
C599        H604   1.083       .  S
C600        C601   1.406       .  A
C600        H605   1.081       .  S
C601        C602   1.406       .  A
C602        H606   1.082       .  S
C607        C608   1.407       .  A
C607        C612   1.397       .  A
C607        H613   1.081       .  S
C608        C609   1.407       .  A
C609        C610   1.400       .  A
C609        H614   1.082       .  S
C610        C611   1.406       .  A
C610        H615   1.083       .  S
C611        C612   1.405       .  A
C612        H616   1.083       .  S
C617        C618   1.408       .  A
C617        C622   1.398       .  A
C617        H623   1.081       .  S
C618        C619   1.407       .  A
C619        C620   1.400       .  A
C619        H624   1.081       .  S
C620        C621   1.405       .  A
C620        H625   1.083       .  S
C621        C622   1.405       .  A
C622        H626   1.083       .  S
C627        C628   1.341       .  D
C627        H629   1.085       .  S
C628        H630   1.085       .  S
C631        C632   1.404       .  A
C631        C636   1.396       .  A
C631        H637   1.083       .  S
C632        C633   1.405       .  A
C633        C634   1.397       .  A
C633        H638   1.083       .  S
C634        C635   1.406       .  A
C634        H639   1.081   1_565  S
C635        C636   1.407       .  A
C636        H640   1.081       .  S
C641        C642   1.407       .  A
C641        C646   1.397       .  A
C641        H647   1.081       .  S
C642        C643   1.406       .  A
C643        C644   1.397       .  A
C643        H648   1.081       .  S
C644        C645   1.405       .  A
C644        H649   1.083       .  S
C645        C646   1.404       .  A
C646        H650   1.083       .  S
C651        C652   1.342       .  D
C651        H653   1.085       .  S
C652        H654   1.085       .  S
C655        C656   1.405       .  A
C655        C660   1.395       .  A
C655        H661   1.082       .  S
C656        C657   1.406       .  A
C657        C658   1.396       .  A
C657        H662   1.082       .  S
C658        C659   1.404       .  A
C658        H663   1.083       .  S
C659        C660   1.404       .  A
C660        H664   1.083       .  S
C665        C666   1.405       .  A
C665        C670   1.396       .  A
C665        H671   1.083       .  S
C666        C667   1.404       .  A
C667        C668   1.398       .  A
C667        H672   1.083       .  S
C668        C669   1.407       .  A
C668        H673   1.081       .  S
C669        C670   1.405       .  A
C670        H674   1.081       .  S
C675        C676   1.406       .  A
C675        C680   1.398       .  A
C675        H681   1.081       .  S
C676        C677   1.406       .  A
C677        C678   1.393       .  A
C677        H682   1.081       .  S
C678        C679   1.403       .  A
C678        H683   1.083       .  S
C679        C680   1.404       .  A
C680        H684   1.083       .  S
C685        C686   1.406       .  A
C685        C690   1.396       .  A
C685        H691   1.081       .  S
C686        C687   1.407       .  A
C687        C688   1.397       .  A
C687        H692   1.081       .  S
C688        C689   1.404       .  A
C688        H693   1.083       .  S
C689        C690   1.405       .  A
C690        H694   1.083       .  S
C695        C696   1.341       .  D
C695        H697   1.085       .  S
C696        H698   1.085       .  S
C699        C700   1.407   1_655  A
C699        C704   1.401       .  A
C699        H705   1.081       .  S
C700        C701   1.408       .  A
C701        C702   1.396   1_455  A
C701        H706   1.080       .  S
C702        C703   1.404       .  A
C702        H707   1.083       .  S
C703        C704   1.406       .  A
C704        H708   1.083       .  S
C709        C710   1.406   1_545  A
C709        C714   1.396       .  A
C709        H715   1.081   1_545  S
C710        C711   1.407   1_565  A
C711        C712   1.396       .  A
C711        H716   1.081       .  S
C712        C713   1.404       .  A
C712        H717   1.083       .  S
C713        C714   1.404       .  A
C714        H718   1.083       .  S
C719        C720   1.406       .  A
C719        C724   1.400       .  A
C719        H725   1.081       .  S
C720        C721   1.409       .  A
C721        C722   1.399       .  A
C721        H726   1.081       .  S
C722        C723   1.404       .  A
C722        H727   1.083       .  S
C723        C724   1.406       .  A
C724        H728   1.083       .  S
C729        C730   1.406       .  A
C729        C734   1.397       .  A
C729        H735   1.081       .  S
C730        C731   1.406       .  A
C731        C732   1.397       .  A
C731        H736   1.081       .  S
C732        C733   1.404       .  A
C732        H737   1.083       .  S
C733        C734   1.405       .  A
C734        H738   1.083       .  S
C739        C740   1.340       .  D
C739        H741   1.085       .  S
C740        H742   1.086       .  S
C743        C744   1.404       .  A
C743        C748   1.399       .  A
C743        H749   1.083       .  S
C744        C745   1.404       .  A
C745        C746   1.395   1_655  A
C745        H750   1.083       .  S
C746        C747   1.406       .  A
C746        H751   1.081       .  S
C747        C748   1.408   1_455  A
C748        H752   1.081       .  S
C753        C754   1.403       .  A
C753        C758   1.394       .  A
C753        H759   1.083       .  S
C754        C755   1.405       .  A
C755        C756   1.398       .  A
C755        H760   1.083       .  S
C756        C757   1.406       .  A
C756        H761   1.081       .  S
C757        C758   1.406       .  A
C758        H762   1.081   1_545  S
C763        C764   1.407       .  A
C763        C768   1.398       .  A
C763        H769   1.081       .  S
C764        C765   1.407       .  A
C765        C766   1.396       .  A
C765        H770   1.080       .  S
C766        C767   1.404       .  A
C766        H771   1.083       .  S
C767        C768   1.405       .  A
C768        H772   1.083       .  S
C773        C774   1.406       .  A
C773        C778   1.394       .  A
C773        H779   1.081       .  S
C774        C775   1.407       .  A
C775        C776   1.399       .  A
C775        H780   1.081       .  S
C776        C777   1.405       .  A
C776        H781   1.083       .  S
C777        C778   1.403       .  A
C778        H782   1.083       .  S
C783        C784   1.406       .  A
C783        C788   1.394       .  A
C783        H789   1.081       .  S
C784        C785   1.407       .  A
C785        C786   1.396       .  A
C785        H790   1.081       .  S
C786        C787   1.404       .  A
C786        H791   1.083       .  S
C787        C788   1.404       .  A
C788        H792   1.083       .  S
C793        C794   1.340   1_455  D
C793        H795   1.085   1_455  S
C794        H796   1.085       .  S
C797        C798   1.405       .  A
C797        C802   1.393       .  A
C797        H803   1.081       .  S
C798        C799   1.406       .  A
C799        C800   1.397       .  A
C799        H804   1.081       .  S
C800        C801   1.404       .  A
C800        H805   1.083       .  S
C801        C802   1.403       .  A
C802        H806   1.083       .  S
C807        C808   1.405       .  A
C807        C812   1.395       .  A
C807        H813   1.082       .  S
C808        C809   1.404       .  A
C809        C810   1.394       .  A
C809        H814   1.082       .  S
C810        C811   1.404       .  A
C810        H815   1.083       .  S
C811        C812   1.404       .  A
C812        H816   1.083       .  S
C817        C818   1.408       .  A
C817        C822   1.396       .  A
C817        H823   1.080       .  S
C818        C819   1.406       .  A
C819        C820   1.398       .  A
C819        H824   1.081       .  S
C820        C821   1.406       .  A
C820        H825   1.083       .  S
C821        C822   1.403       .  A
C822        H826   1.083       .  S
C827        C828   1.344   1_554  D
C827        H829   1.084   1_554  S
C828        H830   1.085   1_556  S
C831        C832   1.405       .  A
C831        C836   1.399       .  A
C831        H837   1.083       .  S
C832        C833   1.404       .  A
C833        C834   1.393       .  A
C833        H838   1.083       .  S
C834        C835   1.405       .  A
C834        H839   1.081       .  S
C835        C836   1.406       .  A
C836        H840   1.082       .  S
C841        C842   1.405       .  A
C841        C846   1.396       .  A
C841        H847   1.083       .  S
C842        C843   1.404       .  A
C843        C844   1.396       .  A
C843        H848   1.083       .  S
C844        C845   1.407       .  A
C844        H849   1.081   1_565  S
C845        C846   1.405       .  A
C846        H850   1.081       .  S
C851        C852   1.403       .  A
C851        C856   1.396       .  A
C851        H857   1.083       .  S
C852        C853   1.405       .  A
C853        C854   1.396       .  A
C853        H858   1.083       .  S
C854        C855   1.406       .  A
C854        H859   1.081       .  S
C855        C856   1.407       .  A
C856        H860   1.081       .  S
C861        C862   1.405       .  A
C861        C866   1.397       .  A
C861        H867   1.083       .  S
C862        C863   1.403       .  A
C863        C864   1.396       .  A
C863        H868   1.083       .  S
C864        C865   1.407       .  A
C864        H869   1.081       .  S
C865        C866   1.406       .  A
C866        H870   1.081       .  S
C871        C872   1.403       .  A
C871        C876   1.395       .  A
C871        H877   1.083       .  S
C872        C873   1.405       .  A
C873        C874   1.398       .  A
C873        H878   1.083       .  S
C874        C875   1.406       .  A
C874        H879   1.081       .  S
C875        C876   1.407       .  A
C876        H880   1.081       .  S
C881        C882   1.403       .  A
C881        C886   1.395       .  A
C881        H887   1.083       .  S
C882        C883   1.405       .  A
C883        C884   1.398       .  A
C883        H888   1.083       .  S
C884        C885   1.406       .  A
C884        H889   1.081       .  S
C885        C886   1.407       .  A
C886        H890   1.081       .  S
C891        C892   1.403       .  A
C891        C896   1.395       .  A
C891        H897   1.083       .  S
C892        C893   1.405       .  A
C893        C894   1.398       .  A
C893        H898   1.083       .  S
C894        C895   1.406       .  A
C894        H899   1.081       .  S
C895        C896   1.407       .  A
C896        H900   1.081       .  S
C901        C902   1.404       .  A
C901        C906   1.396       .  A
C901        H907   1.083       .  S
C902        C903   1.404       .  A
C903        C904   1.396       .  A
C903        H908   1.083       .  S
C904        C905   1.406       .  A
C904        H909   1.081       .  S
C905        C906   1.406       .  A
C906        H910   1.081       .  S
C911        C912   1.407       .  A
C911        C916   1.402       .  A
C911        H917   1.083       .  S
C912        C913   1.404       .  A
C913        C914   1.396       .  A
C913        H918   1.083       .  S
C914        C915   1.408       .  A
C914        H919   1.080       .  S
C915        C916   1.407       .  A
C916        H920   1.081       .  S
C921        C922   1.407       .  A
C921        C926   1.398       .  A
C921        H927   1.081       .  S
C922        C923   1.406       .  A
C923        C924   1.396       .  A
C923        H928   1.081       .  S
C924        C925   1.404       .  A
C924        H929   1.083       .  S
C925        C926   1.404       .  A
C926        H930   1.083       .  S
C931        C932   1.408       .  A
C931        C936   1.397       .  A
C931        H937   1.080       .  S
C932        C933   1.406       .  A
C933        C934   1.399       .  A
C933        H938   1.081       .  S
C934        C935   1.406       .  A
C934        H939   1.083       .  S
C935        C936   1.404       .  A
C936        H940   1.083       .  S
C941        C942   1.406       .  A
C941        C946   1.397       .  A
C941        H947   1.081       .  S
C942        C943   1.406       .  A
C943        C944   1.396       .  A
C943        H948   1.081       .  S
C944        C945   1.404       .  A
C944        H949   1.083       .  S
C945        C946   1.404       .  A
C946        H950   1.083       .  S
C951        C952   1.341       .  D
C951        H953   1.085       .  S
C952        H954   1.085       .  S
