geometry optimzed in LAMMPS
_audit_creation_date              2020-11-30 
_audit_creation_method            'lammps2cif' 
_symmetry_space_group_name_H-M    'P1' 
_symmetry_Int_Tables_number       1 
_symmetry_cell_setting            triclinic 
loop_ 
_symmetry_equiv_pos_as_xyz 
  x,y,z 
_cell_length_a                    43.20102705 
_cell_length_b                    21.1980348779029 
_cell_length_c                    40.69810566373089 
_cell_angle_alpha                 91.04002055677485 
_cell_angle_beta                  90.36284502018418 
_cell_angle_gamma                 89.60534496694562 
loop_ 
_atom_site_label 
_atom_site_type_symbol 
_atom_site_fract_x 
_atom_site_fract_y 
_atom_site_fract_z 
_atom_site_charge 
O1          O  0.61567335  0.28103481  0.38616229    -0.77400
C2          C  0.53835236  0.37899774  0.34167257     0.83600
O3          O  0.62179660  0.29470065  0.25978654    -0.78500
O4          O  0.60207719  0.52304549  0.30126724    -0.80000
O5          O  0.66047496  0.48638566  0.37110931    -0.79800
O6          O  0.65554176  0.34510422  0.39521124    -0.78400
Zn7        Zn  0.60023454  0.30623374  0.33952633     1.55700
O8          O  0.61113735  0.49100543  0.38435405    -0.79800
Cd9        Cd  0.65874883  0.39563671  0.35412651     1.59700
Cd10       Cd  0.63668065  0.37942495  0.28143260     1.59600
O11         O  0.69887802  0.37417501  0.33123440    -0.79800
O12         O  0.62194527  0.38134848  0.32707676    -1.90300
Cd13       Cd  0.59680354  0.45750866  0.33799714     1.59900
O14         O  0.68510523  0.37711353  0.27860046    -0.79800
O15         O  0.55092608  0.43289987  0.33974516    -0.78400
C16         C  0.61226906  0.24287620  0.27183694     0.84100
C17         C  0.63724002  0.30296299  0.40490589     0.83800
O18         O  0.55411761  0.32782565  0.34222581    -0.77400
C19         C  0.63941429  0.50207451  0.39127090     0.84600
O20         O  0.60522291  0.23854991  0.30232126    -0.77500
C21         C  0.70575161  0.37243660  0.30099578     0.84700
C22         C  0.61104958  0.51600556  0.27158660     0.85000
O23         O  0.62203757  0.46358828  0.26032349    -0.79900
C24         C  0.61541414  0.12597237  0.19784013     0.87600
C25         C  0.62249932  0.06859186  0.21930836    -0.52700
C26         C  0.60883490  0.07020331  0.24938971     0.10500
C27         C  0.58843373  0.12933764  0.25542447     0.21400
C28         C  0.57977661  0.12561187  0.19605771    -0.53400
C29         C  0.56582425  0.12776597  0.22604492     0.10600
C30         C  0.62348922  0.18414042  0.21924050    -0.52900
C31         C  0.60933219  0.18678744  0.24925651     0.11200
H32         H  0.63539952  0.02753773  0.21064728     0.15700
H33         H  0.57666008  0.13068807  0.27961589     0.01400
H34         H  0.56647632  0.12129879  0.17344191     0.16000
H35         H  0.63869203  0.22101375  0.21080747     0.15800
C36         C  0.73080844  0.13749550  0.04086815     0.87600
C37         C  0.71949841  0.07843757  0.52244691    -0.52700
C38         C  0.68817087  0.07467177  0.51873522     0.10500
C39         C  0.67067846  0.12679433  0.03798053     0.21400
C40         C  0.71396475  0.19330677  0.52401663    -0.53400
C41         C  0.68213006  0.18747801  0.52189372     0.10600
C42         C  0.71526532  0.13633342  0.07441291    -0.52900
C43         C  0.68399649  0.12864443  0.07338831     0.11200
H44         H  0.73517928  0.04935028  0.50774650     0.15700
H45         H  0.64536773  0.11988714  0.53795646     0.01400
H46         H  0.72614745  0.23147313  0.51284919     0.16000
H47         H  0.72786118  0.14438021  0.09722904     0.15800
O48         O  0.96504423  0.25648413  0.12888566    -0.77400
C49         C  0.03501849  0.13402537  0.08979666     0.83600
O50         O  0.94865339  0.22556980  0.50611170    -0.78500
O51         O  0.96776125  0.99850307  0.04715906    -0.80000
O52         O  0.91907303  0.11202110  0.14064672    -0.79800
O53         O  0.91610648  0.25596358  0.11463429    -0.78400
Zn54       Zn  0.97790804  0.21816442  0.08328463     1.55700
O55         O  0.95378455  0.03549941  0.13042885    -0.79800
Cd56       Cd  0.91648918  0.16444946  0.10020869     1.59700
Cd57       Cd  0.93440925  0.14172315  0.02760853     1.59600
O58         O  0.87486858  0.14545444  0.07985841    -0.79800
O59         O  0.95193319  0.14581931  0.07261742    -1.90300
Cd60       Cd  0.97246487  0.06549796  0.08564821     1.59900
O61         O  0.88532329  0.13967589  0.02665569    -0.79800
O62         O  0.01950111  0.08316117  0.09135809    -0.78400
C63         C  0.96198040  0.27627536  0.01671222     0.84100
C64         C  0.93694943  0.27097900  0.13518838     0.83800
O65         O  0.02228151  0.18789589  0.08605138    -0.77400
C66         C  0.93300675  0.06160057  0.14849236     0.84600
O67         O  0.97334390  0.28103688  0.04578956    -0.77500
C68         C  0.86600026  0.13922406  0.05030100     0.84700
C69         C  0.95945641  0.00369895  0.01704908     0.85000
O70         O  0.94893445  0.05559493  0.50566637    -0.79900
C71         C  0.95567567  0.38692950  0.44258689     0.87600
C72         C  0.94754661  0.44497495  0.46411577    -0.52700
C73         C  0.96235781  0.44760922  0.49393608     0.10500
C74         C  0.98383249  0.39012934  0.49992375     0.21400
C75         C  0.99130301  0.38734804  0.44044515    -0.53400
C76         C  0.00590154  0.38941574  0.47035955     0.10600
C77         C  0.94967689  0.32920561  0.46417272    -0.52900
C78         C  0.96387867  0.33065661  0.49417495     0.11200
H79         H  0.93192248  0.48187924  0.45587815     0.15700
H80         H  0.99606350  0.39162866  0.02403442     0.01400
H81         H  0.00395316  0.38389013  0.41749974     0.16000
H82         H  0.93778417  0.28725143  0.45556294     0.15800
C83         C  0.83879275  0.39093514  0.28595111     0.87600
C84         C  0.85062364  0.45241723  0.27081603    -0.52700
C85         C  0.88209356  0.45420605  0.26595759     0.10500
C86         C  0.89885603  0.39704446  0.28131891     0.21400
C87         C  0.85365163  0.33684992  0.26577301    -0.53400
C88         C  0.88492066  0.34172796  0.26155251     0.10600
C89         C  0.85533977  0.39139542  0.31893958    -0.52900
C90         C  0.88677310  0.39234003  0.31716189     0.11200
H91         H  0.83532358  0.49012460  0.26324164     0.15700
H92         H  0.92440926  0.39728771  0.28015348     0.01400
H93         H  0.83974154  0.30357974  0.25154174     0.16000
H94         H  0.84305806  0.39363112  0.34210874     0.15800
O95         O  0.51771858  0.17849979  0.23274825    -0.77400
C96         C  0.43199354  0.24356387  0.18035101     0.83600
O97         O  0.44484240  0.21398927  0.31104365    -0.78500
O98         O  0.37180775  0.11697911  0.23692262    -0.80000
O99         O  0.45555375  0.02040806  0.18361739    -0.79800
O100        O  0.51817204  0.07341921  0.22728400    -0.78400
Zn101      Zn  0.47278915  0.20189574  0.23420877     1.55700
O102        O  0.41644226  0.08703169  0.17516179    -0.79800
Cd103      Cd  0.47145059  0.05049554  0.23057262     1.59700
Cd104      Cd  0.43244951  0.12702023  0.28892901     1.59600
O105        O  0.46717396  0.98388892  0.26808137    -0.79800
O106        O  0.44856440  0.12856210  0.24384944    -1.90300
Cd107      Cd  0.41222995  0.14031961  0.21603793     1.59900
O108        O  0.44955400  0.04431916  0.30989930    -0.79800
O109        O  0.41015275  0.22969431  0.19950171    -0.78400
C110        C  0.45697769  0.26446099  0.29989842     0.84100
C111        C  0.53210198  0.12630110  0.22925974     0.83800
O112        O  0.45997463  0.23275014  0.18865846    -0.77400
C113        C  0.43391554  0.04250365  0.16532489     0.84600
O114        O  0.46707547  0.26749002  0.27054340    -0.77500
C115        C  0.45979839  0.99143862  0.29837035     0.84700
C116        C  0.36408745  0.11128202  0.26667814     0.85000
O117        O  0.38391231  0.11706594  0.28995554    -0.79900
C118        C  0.45506374  0.38201984  0.37308511     0.87600
C119        C  0.44606888  0.32441161  0.35186006    -0.52700
C120        C  0.46011020  0.32075872  0.32196113     0.10500
C121        C  0.48186288  0.37687337  0.31545401     0.21400
C122        C  0.49065830  0.38001260  0.37476726    -0.53400
C123        C  0.50458928  0.37656898  0.34480391     0.10600
C124        C  0.44870190  0.43985409  0.35146414    -0.52900
C125        C  0.46228256  0.43738638  0.32122861     0.11200
H126        H  0.43055687  0.28819742  0.36047107     0.15700
H127        H  0.49357307  0.37466360  0.29123763     0.01400
H128        H  0.50383940  0.38323474  0.39754496     0.16000
H129        H  0.43686177  0.48213446  0.35992979     0.15800
C130        C  0.34159311  0.36107043  0.03040015     0.87600
C131        C  0.35522240  0.30263243  0.04738086    -0.52700
C132        C  0.38666244  0.30323893  0.05102428     0.10500
C133        C  0.40197545  0.35745425  0.03223143     0.21400
C134        C  0.35686164  0.41820940  0.04792931    -0.53400
C135        C  0.38866254  0.41648393  0.04940185     0.10600
C136        C  0.35649098  0.35731598  0.99655148    -0.52900
C137        C  0.38802614  0.35752682  0.99713705     0.11200
H138        H  0.34189519  0.26755865  0.05979945     0.15700
H139        H  0.42752681  0.35502775  0.03160822     0.01400
H140        H  0.34303279  0.45295634  0.06124585     0.16000
H141        H  0.34311987  0.35606478  0.47377654     0.15800
O142        O  0.11715972  0.48203814  0.43251117    -0.77400
C143        C  0.03967281  0.38476633  0.47376623     0.83600
O144        O  0.12516528  0.46438310  0.05785997    -0.78500
O145        O  0.10294901  0.23701822  0.01711123    -0.80000
O146        O  0.16141933  0.27265511  0.44766493    -0.79800
O147        O  0.15552238  0.41427890  0.42207642    -0.78400
Zn148      Zn  0.10174425  0.45458792  0.47826952     1.55700
O149        O  0.11214397  0.26840772  0.43367212    -0.79800
Cd150      Cd  0.15968794  0.36400179  0.46330707     1.59700
Cd151      Cd  0.13917013  0.37867310  0.03608059     1.59600
O152        O  0.20045707  0.38514665  0.48539844    -0.79800
O153        O  0.12322211  0.37808098  0.49059076    -1.90300
Cd154      Cd  0.09769453  0.30259686  0.47975206     1.59900
O155        O  0.18770553  0.37782364  0.03799363    -0.79800
O156        O  0.05187655  0.33014601  0.47626172    -0.78400
C157        C  0.11487974  0.51636071  0.04614511     0.84100
C158        C  0.13787291  0.45893303  0.41322877     0.83800
O159        O  0.05572661  0.43510727  0.47392392    -0.77400
C160        C  0.14049851  0.25746221  0.42713472     0.84600
O161        O  0.10677380  0.52101954  0.01590185    -0.77500
C162        C  0.20795674  0.38373118  0.01558048     0.84700
C163        C  0.11314645  0.24306517  0.04656611     0.85000
O164        O  0.12493480  0.29476949  0.05756038    -0.79900
C165        C  0.11880648  0.13240086  0.12055081     0.87600
C166        C  0.12641990  0.18869091  0.09860786    -0.52700
C167        C  0.11122306  0.18878425  0.06908403     0.10500
C168        C  0.09073132  0.13009935  0.06323960     0.21400
C169        C  0.08338469  0.13190498  0.12264080    -0.53400
C170        C  0.06880677  0.13082574  0.09286521     0.10600
C171        C  0.12717214  0.07473423  0.09854111    -0.52900
C172        C  0.11209723  0.07232219  0.06887088     0.11200
H173        H  0.14276360  0.22533050  0.10536221     0.15700
H174        H  0.07838912  0.12924716  0.03921351     0.01400
H175        H  0.07089550  0.13342219  0.14573514     0.16000
H176        H  0.14374700  0.03866890  0.10559630     0.15800
C177        C  0.23067739  0.11945935  0.27836601     0.87600
C178        C  0.22086585  0.18060262  0.29673522    -0.52700
C179        C  0.18962180  0.18766108  0.30059001     0.10500
C180        C  0.17089567  0.13711524  0.28159105     0.21400
C181        C  0.21302107  0.06645606  0.29538605    -0.53400
C182        C  0.18149489  0.07540930  0.29744936     0.10600
C183        C  0.21491923  0.12621060  0.24476072    -0.52900
C184        C  0.18379245  0.13455402  0.24647953     0.11200
H185        H  0.23694980  0.21105395  0.30990487     0.15700
H186        H  0.14557448  0.14564101  0.28146715     0.01400
H187        H  0.22524649  0.02870374  0.30773917     0.16000
H188        H  0.22687172  0.12532847  0.22140613     0.15800
C189        C  0.15486712  0.07794965  0.20223261     0.24700
C190        C  0.16437001  0.13505033  0.21664853    -0.23400
C191        C  0.15641523  0.19183337  0.20178211     0.19600
C192        C  0.14059965  0.19150066  0.17164394     0.24600
C193        C  0.13391864  0.13381146  0.15486336    -0.23400
C194        C  0.13912632  0.07724866  0.17211141     0.19500
F195        F  0.12839307  0.02110904  0.16045203    -0.13300
F196        F  0.16107418  0.02262234  0.21732952    -0.15700
F197        F  0.13092830  0.24779199  0.15986441    -0.15700
F198        F  0.16416027  0.24766983  0.21640274    -0.13300
C199        C  0.17591380  0.19409220  0.39208260     0.24700
C200        C  0.15033816  0.23479849  0.39447477    -0.23400
C201        C  0.13846636  0.26279121  0.36585195     0.19600
C202        C  0.15239913  0.25065770  0.33530548     0.24600
C203        C  0.17810212  0.21002707  0.33303803    -0.23400
C204        C  0.18959076  0.18161372  0.36181518     0.19500
F205        F  0.21320335  0.13910409  0.36058575    -0.13300
F206        F  0.18763280  0.16596705  0.41923266    -0.15700
F207        F  0.14075081  0.27807758  0.30795273    -0.15700
F208        F  0.11441094  0.30422005  0.36770363    -0.13300
C209        C  0.13033232  0.04218034  0.37043201     0.24700
C210        C  0.14244611  0.98363588  0.37980859    -0.23400
C211        C  0.16120860  0.44943671  0.35698143     0.19600
C212        C  0.17037339  0.97656652  0.32790891     0.24600
C213        C  0.16228195  0.03917146  0.32101713    -0.23400
C214        C  0.13949066  0.06898760  0.34090762     0.19500
F215        F  0.12681672  0.12530474  0.33317363    -0.13300
F216        F  0.11102633  0.07541184  0.39057586    -0.15700
F217        F  0.18852354  0.94232572  0.30698453    -0.15700
F218        F  0.17142885  0.39018645  0.36332565    -0.13300
C219        C  0.25364519  0.34498929  0.04739510     0.24700
C220        C  0.24122112  0.38524534  0.02373303    -0.23400
C221        C  0.26131920  0.42166635  0.00504710     0.19600
C222        C  0.29331305  0.41469484  0.00830728     0.24600
C223        C  0.30623688  0.36924167  0.02949366    -0.23400
C224        C  0.28572424  0.33763284  0.05070761     0.19500
F225        F  0.29589680  0.30190238  0.07583594    -0.13300
F226        F  0.23470735  0.31064938  0.06656526    -0.15700
F227        F  0.31164138  0.45224513  0.49021910    -0.15700
F228        F  0.24985359  0.46358061  0.48316902    -0.13300
C229        C  0.44938353  0.33796269  0.43086009     0.24700
C230        C  0.43896156  0.38061298  0.40665434    -0.23400
C231        C  0.41115581  0.41434212  0.41297390     0.19600
C232        C  0.39581357  0.40868241  0.44279159     0.24600
C233        C  0.40631089  0.36624286  0.46663657    -0.23400
C234        C  0.43348325  0.33152619  0.46054440     0.19500
F235        F  0.44381025  0.28868966  0.98250616    -0.13300
F236        F  0.47427379  0.29991762  0.42529600    -0.15700
F237        F  0.37017830  0.44483668  0.44805427    -0.15700
F238        F  0.39688858  0.44955893  0.38984726    -0.13300
C239        C  0.31710924  0.12171966  0.30256485     0.24700
C240        C  0.33093045  0.10024077  0.27332956    -0.23400
C241        C  0.31202828  0.07272207  0.24873606     0.19600
C242        C  0.27985207  0.07461635  0.25141978     0.22600
C243        C  0.26568777  0.10683120  0.27804850    -0.23400
C244        C  0.28481128  0.12377441  0.30519949     0.19500
F245        F  0.27254343  0.14240436  0.33441144    -0.13300
F246        F  0.33468956  0.14350343  0.32804468    -0.15700
F247        F  0.26284510  0.04365081  0.22816469    -0.15700
F248        F  0.32468925  0.04444432  0.22172544    -0.13300
C249        C  0.42545782  0.24872878  0.08764987     0.24700
C250        C  0.39883623  0.28633957  0.08405564    -0.23400
C251        C  0.38520107  0.31394528  0.11242623     0.19600
C252        C  0.39758204  0.30349128  0.14343311     0.24600
C253        C  0.42373639  0.26496052  0.14721270    -0.23400
C254        C  0.43779272  0.23778781  0.11909148     0.19500
F255        F  0.46230268  0.19787248  0.12218632    -0.13300
F256        F  0.43923406  0.22228324  0.06082397    -0.15700
F257        F  0.38356520  0.33039535  0.17004642    -0.15700
F258        F  0.36001660  0.35233857  0.11031793    -0.13300
C259        C  0.43178407  0.43121709  0.09178721     0.24700
C260        C  0.40652793  0.45621462  0.07366692    -0.23400
C261        C  0.39561158  0.51671931  0.08253582     0.19600
C262        C  0.40619592  0.54668719  0.11120617     0.24600
C263        C  0.42771274  0.51639421  0.13212551    -0.23400
C264        C  0.44148311  0.45992013  0.12118817     0.19500
F265        F  0.46333334  0.43045168  0.13961654    -0.13300
F266        F  0.44656454  0.37742076  0.08259776    -0.15700
F267        F  0.39375377  0.10398450  0.11895347    -0.15700
F268        F  0.37405261  0.54659669  0.06389111    -0.13300
C269        C  0.94819494  0.42575845  0.38334473     0.24700
C270        C  0.93839019  0.38697407  0.40926304    -0.23400
C271        C  0.91069786  0.35270151  0.40425494     0.19600
C272        C  0.89601678  0.35073429  0.37369898     0.24600
C273        C  0.90602614  0.38856822  0.34779555    -0.23400
C274        C  0.93218126  0.42658668  0.35308141     0.19500
F275        F  0.94136796  0.46708693  0.32969275    -0.13300
F276        F  0.97255698  0.46518152  0.38766513    -0.15700
F277        F  0.87120666  0.31217766  0.36990706    -0.15700
F278        F  0.89583187  0.32456078  0.42924783    -0.13300
C279        C  0.88977036  0.52095181  0.18013381     0.24700
C280        C  0.92168618  0.03182144  0.17826069    -0.23400
C281        C  0.94090495  0.01840580  0.20506281     0.19600
C282        C  0.92799672  0.99823985  0.23464983     0.24600
C283        C  0.89542035  0.48673635  0.23676597    -0.23400
C284        C  0.87673919  0.49953083  0.20886162     0.19500
F285        F  0.84584672  0.48896765  0.20803821    -0.13300
F286        F  0.87087099  0.53308342  0.15411575    -0.15700
F287        F  0.94723443  0.98932441  0.26060708    -0.15700
F288        F  0.97192898  0.02701854  0.20300186    -0.13300
C289        C  0.88307105  0.33586341  0.19986564     0.24700
C290        C  0.89898270  0.32291286  0.22935569    -0.23400
C291        C  0.92952152  0.29963860  0.22749533     0.19600
C292        C  0.94317995  0.28624346  0.19678517     0.24600
C293        C  0.92673307  0.29769195  0.16740516    -0.23400
C294        C  0.89690378  0.32452783  0.16955110     0.19500
F295        F  0.88048038  0.33854007  0.14202071    -0.13300
F296        F  0.85403505  0.36072790  0.20005507    -0.15700
F297        F  0.97175616  0.25929298  0.19591087    -0.15700
F298        F  0.94574932  0.28802300  0.25543433    -0.13300
C299        C  0.78219699  0.10144154  0.06586106     0.24700
C300        C  0.76643295  0.13779565  0.04208677    -0.23400
C301        C  0.78456108  0.16443586  0.01697274     0.19600
C302        C  0.81708312  0.16242940  0.01850350     0.24600
C303        C  0.83225696  0.13263483  0.04460383    -0.23400
C304        C  0.81444518  0.10053328  0.06763758     0.19500
F305        F  0.82835492  0.06721610  0.09190394    -0.13300
F306        F  0.76659339  0.06480326  0.08709690    -0.15700
F307        F  0.83369006  0.19065699  0.49475937    -0.15700
F308        F  0.77120847  0.19004140  0.49007975    -0.13300
C309        C  0.67777403  0.09590680  0.13203640     0.24700
C310        C  0.66533930  0.12543025  0.10415238    -0.23400
C311        C  0.63641186  0.15586236  0.10699231     0.19600
C312        C  0.62022598  0.15607277  0.13682753     0.24600
C313        C  0.63243930  0.12533358  0.16473273    -0.23400
C314        C  0.66245720  0.09873224  0.16207314     0.19500
F315        F  0.67809852  0.07767288  0.18878922    -0.13300
F316        F  0.70516467  0.06419050  0.13053451    -0.15700
F317        F  0.59346965  0.18978724  0.13860229    -0.15700
F318        F  0.62437952  0.18854164  0.08149079    -0.13300
C319        C  0.75122618  0.40155759  0.26665434     0.24700
C320        C  0.73886557  0.36784431  0.29277067    -0.23400
C321        C  0.75904193  0.33529943  0.31376312     0.19600
C322        C  0.79096637  0.34136894  0.31077773     0.24600
C323        C  0.80367144  0.38260750  0.28760707    -0.23400
C324        C  0.78333169  0.40803869  0.26371702     0.19500
F325        F  0.79414150  0.43779973  0.23697691    -0.13300
F326        F  0.73228364  0.43045821  0.24473945    -0.15700
F327        F  0.80931522  0.30604702  0.33055577    -0.15700
F328        F  0.74778626  0.29770768  0.33752644    -0.13300
C329        C  0.67482065  0.06608371  0.42668686     0.24700
C330        C  0.64893385  0.52631698  0.42392365    -0.23400
C331        C  0.63619606  0.50143051  0.45269537     0.19600
C332        C  0.64992110  0.01451766  0.48364395     0.24600
C333        C  0.67593040  0.05365388  0.48612786    -0.23400
C334        C  0.68798872  0.07992722  0.45725125     0.19500
F335        F  0.71201813  0.12087629  0.45856800    -0.13300
F336        F  0.68712595  0.09203136  0.39947281    -0.15700
F337        F  0.63668768  0.49145794  0.01094484    -0.15700
F338        F  0.61206435  0.46081809  0.45078028    -0.13300
C339        C  0.67191784  0.28652146  0.49013162     0.24700
C340        C  0.66310750  0.22493249  0.49796496    -0.23400
C341        C  0.63923707  0.19665473  0.47878790     0.19600
C342        C  0.62967121  0.22300324  0.44911451     0.24600
C343        C  0.64237761  0.27981718  0.43878073    -0.23400
C344        C  0.66174344  0.31367149  0.46093609     0.19500
F345        F  0.67189138  0.37239110  0.45395621    -0.13300
F346        F  0.69106439  0.32013000  0.51031193    -0.15700
F347        F  0.60920841  0.19090613  0.42978729    -0.15700
F348        F  0.62576607  0.14204917  0.48729320    -0.13300
O349        O  0.61569499  0.28107750  0.88610588    -0.77400
C350        C  0.53832286  0.37904689  0.84166733     0.83600
O351        O  0.62178376  0.29471267  0.75974679    -0.78500
O352        O  0.60205487  0.52305876  0.80124670    -0.80000
O353        O  0.66046937  0.48645255  0.87100221    -0.79800
O354        O  0.65554666  0.34518819  0.89516295    -0.78400
Zn355      Zn  0.60021615  0.30627958  0.83948939     1.55700
O356        O  0.61114721  0.49099572  0.88430712    -0.79800
Cd357      Cd  0.65874490  0.39568035  0.85406391     1.59700
Cd358      Cd  0.63668838  0.37942950  0.78138845     1.59600
O359        O  0.69887222  0.37414166  0.83118906    -0.79800
O360        O  0.62193516  0.38136612  0.82702609    -1.90300
Cd361      Cd  0.59678656  0.45751522  0.83796146     1.59900
O362        O  0.68512104  0.37702364  0.77855095    -0.79800
O363        O  0.55090002  0.43294355  0.83972580    -0.78400
C364        C  0.61224519  0.24290123  0.77180393     0.84100
C365        C  0.63726020  0.30301210  0.90484942     0.83800
O366        O  0.55409019  0.32787524  0.84222003    -0.77400
C367        C  0.63942762  0.50208682  0.89119645     0.84600
O368        O  0.60519279  0.23859625  0.80228709    -0.77500
C369        C  0.70575882  0.37232570  0.80095495     0.84700
C370        C  0.61103971  0.51602954  0.77157135     0.85000
O371        O  0.62204651  0.46362541  0.76030848    -0.79900
C372        C  0.61540619  0.12593167  0.69783956     0.87600
C373        C  0.62248044  0.06857371  0.71931975    -0.52700
C374        C  0.60881097  0.07021247  0.74939436     0.10500
C375        C  0.58840542  0.12935020  0.75541081     0.21400
C376        C  0.57976825  0.12557135  0.69604062    -0.53400
C377        C  0.56580233  0.12775026  0.72602248     0.10600
C378        C  0.62347355  0.18411961  0.71922630    -0.52900
C379        C  0.60930615  0.18679669  0.74923512     0.11200
H380        H  0.63535668  0.02748494  0.71066576     0.15700
H381        H  0.57662633  0.13071902  0.77959906     0.01400
H382        H  0.56648213  0.12126643  0.67341421     0.16000
H383        H  0.63868165  0.22098125  0.71079016     0.15800
C384        C  0.73082695  0.13752838  0.54091487     0.87600
C385        C  0.71948759  0.07839074  0.02240724    -0.52700
C386        C  0.68816087  0.07462062  0.01868416     0.10500
C387        C  0.67069589  0.12684894  0.53803326     0.21400
C388        C  0.71394377  0.19325934  0.02396715    -0.53400
C389        C  0.68211314  0.18742666  0.02183777     0.10600
C390        C  0.71528404  0.13636110  0.57446224    -0.52900
C391        C  0.68401567  0.12869081  0.57343152     0.11200
H392        H  0.73517470  0.04929780  0.00771772     0.15700
H393        H  0.64535126  0.11982326  0.03788764     0.01400
H394        H  0.72612090  0.23144698  0.01281019     0.16000
H395        H  0.72787025  0.14438625  0.59728635     0.15800
O396        O  0.96509967  0.25622989  0.62888328    -0.77400
C397        C  0.03505410  0.13382698  0.58974742     0.83600
O398        O  0.94860895  0.22577697  0.00614560    -0.78500
O399        O  0.96779576  0.99831095  0.54714708    -0.80000
O400        O  0.91907195  0.11172320  0.64059640    -0.79800
O401        O  0.91616130  0.25573268  0.61463850    -0.78400
Zn402      Zn  0.97794517  0.21797023  0.58325767     1.55700
O403        O  0.95383410  0.03528974  0.63040328    -0.79800
Cd404      Cd  0.91652149  0.16424020  0.60018077     1.59700
Cd405      Cd  0.93444326  0.14153176  0.52757829     1.59600
O406        O  0.87490564  0.14534885  0.57979965    -0.79800
O407        O  0.95196643  0.14562853  0.57259068    -1.90300
Cd408      Cd  0.97250207  0.06531245  0.58562510     1.59900
O409        O  0.88535238  0.13949694  0.52659842    -0.79800
O410        O  0.01953526  0.08296899  0.59132381    -0.78400
C411        C  0.96201138  0.27607959  0.51668197     0.84100
C412        C  0.93700466  0.27069803  0.63520106     0.83800
O413        O  0.02231963  0.18769886  0.58599846    -0.77400
C414        C  0.93302702  0.06132970  0.64845040     0.84600
O415        O  0.97336558  0.28085378  0.54576393    -0.77500
C416        C  0.86603053  0.13909356  0.55024568     0.84700
C417        C  0.95949028  0.00350646  0.51703822     0.85000
O418        O  0.94889760  0.05578845  0.00568033    -0.79900
C419        C  0.95566991  0.38711122  0.94261190     0.87600
C420        C  0.94754391  0.44517089  0.96413278    -0.52700
C421        C  0.96234925  0.44780803  0.99395755     0.10500
C422        C  0.98381819  0.39031707  0.99995297     0.21400
C423        C  0.99129798  0.38750914  0.94047515    -0.53400
C424        C  0.00589341  0.38957758  0.97039166     0.10600
C425        C  0.94966221  0.32939916  0.96420198    -0.52900
C426        C  0.96385746  0.33085155  0.99420590     0.11200
H427        H  0.93192258  0.48207522  0.95588929     0.15700
H428        H  0.99608184  0.39144007  0.52400306     0.01400
H429        H  0.00395187  0.38402948  0.91753288     0.16000
H430        H  0.93776128  0.28745346  0.95559098     0.15800
C431        C  0.83882093  0.39046531  0.78593325     0.87600
C432        C  0.85064799  0.45188644  0.77073340    -0.52700
C433        C  0.88211876  0.45367706  0.76587765     0.10500
C434        C  0.89888455  0.39658196  0.78130617     0.21400
C435        C  0.85368917  0.33630286  0.76581901    -0.53400
C436        C  0.88495841  0.34118267  0.76159513     0.10600
C437        C  0.85536040  0.39107992  0.81892416    -0.52900
C438        C  0.88679431  0.39202362  0.81715533     0.11200
H439        H  0.83533789  0.48955568  0.76313026     0.15700
H440        H  0.92443740  0.39681344  0.78014506     0.01400
H441        H  0.83978398  0.30299032  0.75160930     0.16000
H442        H  0.84307218  0.39346171  0.84208637     0.15800
O443        O  0.51769199  0.17848417  0.73273550    -0.77400
C444        C  0.43197593  0.24342230  0.68025773     0.83600
O445        O  0.44484298  0.21398943  0.81101853    -0.78500
O446        O  0.37176549  0.11708739  0.73691026    -0.80000
O447        O  0.45548376  0.02028937  0.68359900    -0.79800
O448        O  0.51814000  0.07341075  0.72722364    -0.78400
Zn449      Zn  0.47275551  0.20188464  0.73416718     1.55700
O450        O  0.41633619  0.08682793  0.67515684    -0.79800
Cd451      Cd  0.47141370  0.05047168  0.73053367     1.59700
Cd452      Cd  0.43241125  0.12705473  0.78889572     1.59600
O453        O  0.46714753  0.98389850  0.76806095    -0.79800
O454        O  0.44852654  0.12854776  0.74380955    -1.90300
Cd455      Cd  0.41218791  0.14025014  0.71599537     1.59900
O456        O  0.44947290  0.04431043  0.80986004    -0.79800
O457        O  0.41012977  0.22957141  0.69940364    -0.78400
C458        C  0.45695929  0.26447460  0.79986836     0.84100
C459        C  0.53207474  0.12628763  0.72922612     0.83800
O460        O  0.45995678  0.23265788  0.68858591    -0.77400
C461        C  0.43381243  0.04230362  0.66532251     0.84600
O462        O  0.46703227  0.26751889  0.77050206    -0.77500
C463        C  0.45974175  0.99144053  0.79834191     0.84700
C464        C  0.36403966  0.11148000  0.76666790     0.85000
O465        O  0.38386685  0.11725284  0.78994295    -0.79900
C466        C  0.45501412  0.38204301  0.87306342     0.87600
C467        C  0.44603992  0.32441771  0.85183667    -0.52700
C468        C  0.46009000  0.32076864  0.82193970     0.10500
C469        C  0.48183426  0.37689864  0.81543803     0.21400
C470        C  0.49061072  0.38006005  0.87475562    -0.53400
C471        C  0.50455403  0.37662272  0.84479597     0.10600
C472        C  0.44864638  0.43986054  0.85142834    -0.52900
C473        C  0.46223877  0.43739488  0.82119821     0.11200
H474        H  0.43053005  0.28819579  0.86044306     0.15700
H475        H  0.49355144  0.37469021  0.79122545     0.01400
H476        H  0.50378084  0.38325876  0.89754152     0.16000
H477        H  0.43680500  0.48214667  0.85987706     0.15800
C478        C  0.34155428  0.36093454  0.53032523     0.87600
C479        C  0.35516904  0.30248657  0.54730571    -0.52700
C480        C  0.38660994  0.30306861  0.55094983     0.10500
C481        C  0.40193296  0.35729389  0.53217382     0.21400
C482        C  0.35682201  0.41806751  0.54785595    -0.53400
C483        C  0.38862098  0.41632313  0.54934092     0.10600
C484        C  0.35645850  0.35716136  0.49648107    -0.52900
C485        C  0.38799357  0.35738345  0.49707595     0.11200
H486        H  0.34182304  0.26742053  0.55971297     0.15700
H487        H  0.42748442  0.35487384  0.53157081     0.01400
H488        H  0.34299419  0.45282732  0.56116534     0.16000
H489        H  0.34314834  0.35626075  0.97384888     0.15800
O490        O  0.11714893  0.48217073  0.93254692    -0.77400
C491        C  0.03966686  0.38492579  0.97380192     0.83600
O492        O  0.12516605  0.46417759  0.55783141    -0.78500
O493        O  0.10296383  0.23682099  0.51705838    -0.80000
O494        O  0.16146387  0.27291372  0.94771829    -0.79800
O495        O  0.15555661  0.41450312  0.92214319    -0.78400
Zn496      Zn  0.10173711  0.45474977  0.97830925     1.55700
O497        O  0.11218188  0.26858462  0.93374454    -0.79800
Cd498      Cd  0.15971889  0.36424978  0.96337253     1.59700
Cd499      Cd  0.13915213  0.37847704  0.53603335     1.59600
O500        O  0.20049078  0.38546162  0.98545314    -0.79800
O501        O  0.12323381  0.37827203  0.99064221    -1.90300
Cd502      Cd  0.09770275  0.30278623  0.97980433     1.59900
O503        O  0.18767999  0.37759642  0.53794691    -0.79800
O504        O  0.05187619  0.33030757  0.97628638    -0.78400
C505        C  0.11488879  0.51616418  0.54612180     0.84100
C506        C  0.13788600  0.45910775  0.91328061     0.83800
O507        O  0.05571861  0.43526847  0.97397195    -0.77400
C508        C  0.14053908  0.25768895  0.92719727     0.84600
O509        O  0.10678518  0.52083622  0.51587801    -0.77500
C510        C  0.20792619  0.38345822  0.51552656     0.84700
C511        C  0.11315271  0.24287655  0.54651730     0.85000
O512        O  0.12491963  0.29459357  0.55751790    -0.79900
C513        C  0.11883604  0.13221392  0.62050173     0.87600
C514        C  0.12644201  0.18851112  0.59856104    -0.52700
C515        C  0.11124765  0.18859130  0.56903332     0.10500
C516        C  0.09076489  0.12989540  0.56318841     0.21400
C517        C  0.08341569  0.13170189  0.62258824    -0.53400
C518        C  0.06884035  0.13061753  0.59281274     0.10600
C519        C  0.12721331  0.07455305  0.59849091    -0.52900
C520        C  0.11213698  0.07212927  0.56882192     0.11200
H521        H  0.14276288  0.22518301  0.60533756     0.15700
H522        H  0.07842275  0.12903590  0.53916218     0.01400
H523        H  0.07092453  0.13322226  0.64568143     0.16000
H524        H  0.14380428  0.03851062  0.60553193     0.15800
C525        C  0.23062285  0.11979519  0.77835913     0.87600
C526        C  0.22079587  0.18094525  0.79670933    -0.52700
C527        C  0.18955166  0.18794371  0.80058894     0.10500
C528        C  0.17083644  0.13734849  0.78160987     0.21400
C529        C  0.21299824  0.06678169  0.79540662    -0.53400
C530        C  0.18146986  0.07567711  0.79748263     0.10600
C531        C  0.21484773  0.12647798  0.74476066    -0.52900
C532        C  0.18371905  0.13476973  0.74649009     0.11200
H533        H  0.23687490  0.21144239  0.80985621     0.15700
H534        H  0.14551225  0.14583129  0.78149394     0.01400
H535        H  0.22524731  0.02906832  0.80776590     0.16000
H536        H  0.22678978  0.12558390  0.72140010     0.15800
C537        C  0.15494574  0.07796005  0.70220483     0.24700
C538        C  0.16429302  0.13513526  0.71665874    -0.23400
C539        C  0.15622205  0.19186335  0.70180135     0.19600
C540        C  0.14044847  0.19141338  0.67163668     0.24600
C541        C  0.13393287  0.13368096  0.65482131    -0.23400
C542        C  0.13925285  0.07714264  0.67205633     0.19500
F543        F  0.12865777  0.02091035  0.66037491    -0.13300
F544        F  0.16125371  0.02267160  0.71729604    -0.15700
F545        F  0.13067409  0.24762440  0.65984408    -0.15700
F546        F  0.16382575  0.24775777  0.71644771    -0.13300
C547        C  0.17598863  0.19445977  0.89211240     0.24700
C548        C  0.15036870  0.23504384  0.89453076    -0.23400
C549        C  0.13841510  0.26292401  0.86591472     0.19600
C550        C  0.15231415  0.25081428  0.83534916     0.24600
C551        C  0.17805360  0.21028659  0.83305174    -0.23400
C552        C  0.18961723  0.18196478  0.86182251     0.19500
F553        F  0.21326236  0.13953398  0.86057120    -0.13300
F554        F  0.18779867  0.16646771  0.91925771    -0.15700
F555        F  0.14059056  0.27813877  0.80800546    -0.15700
F556        F  0.11430349  0.30421274  0.86778705    -0.13300
C557        C  0.13028531  0.04235955  0.87044658     0.24700
C558        C  0.14242620  0.98385275  0.87984213    -0.23400
C559        C  0.16126804  0.44966350  0.85705452     0.19600
C560        C  0.17040607  0.97683221  0.82797306     0.24600
C561        C  0.16228131  0.03941550  0.82106388    -0.23400
C562        C  0.13946332  0.06919101  0.84093629     0.19500
F563        F  0.12678046  0.12549763  0.83320154    -0.13300
F564        F  0.11093159  0.07553687  0.89056174    -0.15700
F565        F  0.18859498  0.94262312  0.80707305    -0.15700
F566        F  0.17150290  0.39042113  0.86339960    -0.13300
C567        C  0.25363013  0.34491203  0.54739535     0.24700
C568        C  0.24118900  0.38501851  0.52367202    -0.23400
C569        C  0.26126925  0.42138352  0.50493664     0.19600
C570        C  0.29326336  0.41444270  0.50818115     0.24600
C571        C  0.30620289  0.36910474  0.52942175    -0.23400
C572        C  0.28571319  0.33764375  0.55071756     0.19500
F573        F  0.29592102  0.30218465  0.57593794    -0.13300
F574        F  0.23470972  0.31065529  0.56662505    -0.15700
F575        F  0.31170948  0.45256309  0.99040286    -0.15700
F576        F  0.24992271  0.46394136  0.98330985    -0.13300
C577        C  0.44930182  0.33785445  0.93080897     0.24700
C578        C  0.43891420  0.38062502  0.90664366    -0.23400
C579        C  0.41117674  0.41454772  0.91304167     0.19600
C580        C  0.39586914  0.40892019  0.94288482     0.24600
C581        C  0.40633208  0.36635975  0.96668489    -0.23400
C582        C  0.43343727  0.33146844  0.96052288     0.19500
F583        F  0.44389328  0.28885269  0.48256393    -0.13300
F584        F  0.47412897  0.29967140  0.92517701    -0.15700
F585        F  0.37029357  0.44521577  0.94821802    -0.15700
F586        F  0.39692625  0.44991963  0.88997065    -0.13300
C587        C  0.31706015  0.12208291  0.80254143     0.24700
C588        C  0.33087588  0.10053736  0.77331673    -0.23400
C589        C  0.31196634  0.07302832  0.74872704     0.19600
C590        C  0.27979237  0.07495717  0.75140986     0.22600
C591        C  0.26563497  0.10721331  0.77802923    -0.23400
C592        C  0.28476305  0.12418993  0.80517174     0.19500
F593        F  0.27250191  0.14289058  0.83437469    -0.13300
F594        F  0.33464606  0.14386583  0.82801708    -0.15700
F595        F  0.26278182  0.04397177  0.72816499    -0.15700
F596        F  0.32461830  0.04471447  0.72172139    -0.13300
C597        C  0.42539131  0.24846813  0.58755488     0.24700
C598        C  0.39878465  0.28612954  0.58397110    -0.23400
C599        C  0.38518002  0.31378943  0.61234205     0.19600
C600        C  0.39758010  0.30335950  0.64334067     0.24600
C601        C  0.42371888  0.26478374  0.64711407    -0.23400
C602        C  0.43774037  0.23753367  0.61899217     0.19500
F603        F  0.46222950  0.19756417  0.62208383    -0.13300
F604        F  0.43914091  0.22197867  0.56072427    -0.15700
F605        F  0.38359773  0.33033792  0.66995461    -0.15700
F606        F  0.36001691  0.35224142  0.61023950    -0.13300
C607        C  0.43169885  0.43099991  0.59177753     0.24700
C608        C  0.40647843  0.45603514  0.57361846    -0.23400
C609        C  0.39556747  0.51654720  0.58247304     0.19600
C610        C  0.40610799  0.54648424  0.61117091     0.24600
C611        C  0.42759614  0.51617368  0.63211798    -0.23400
C612        C  0.44135577  0.45967028  0.62120324     0.19500
F613        F  0.46315407  0.43014492  0.63967458    -0.13300
F614        F  0.44648672  0.37720717  0.58259423    -0.15700
F615        F  0.39359961  0.10368317  0.61896458    -0.15700
F616        F  0.37405894  0.54646268  0.56377989    -0.13300
C617        C  0.94821047  0.42572402  0.88331702     0.24700
C618        C  0.93837941  0.38710362  0.90929072    -0.23400
C619        C  0.91066236  0.35289539  0.90433314     0.19600
C620        C  0.89599344  0.35076820  0.87377418     0.24600
C621        C  0.90603462  0.38841159  0.84780714    -0.23400
C622        C  0.93220771  0.42640637  0.85304331     0.19500
F623        F  0.94142768  0.46673748  0.82959020    -0.13300
F624        F  0.97258609  0.46512889  0.88758832    -0.15700
F625        F  0.87116916  0.31223188  0.87004043    -0.15700
F626        F  0.89577276  0.32495299  0.92937318    -0.13300
C627        C  0.88978170  0.52057753  0.68007674     0.24700
C628        C  0.92170754  0.03150547  0.67820966    -0.23400
C629        C  0.94093571  0.01795162  0.70498486     0.19600
C630        C  0.92803566  0.99770876  0.73456221     0.24600
C631        C  0.89545215  0.48619469  0.73668071    -0.23400
C632        C  0.87676345  0.49905445  0.70878917     0.19500
F633        F  0.84587463  0.48845577  0.70795748    -0.13300
F634        F  0.87087081  0.53277803  0.65407731    -0.15700
F635        F  0.94728770  0.98868285  0.76049592    -0.15700
F636        F  0.97196345  0.02649889  0.70290878    -0.13300
C637        C  0.88310787  0.33537043  0.69991098     0.24700
C638        C  0.89901072  0.32234704  0.72939648    -0.23400
C639        C  0.92954491  0.29904842  0.72753055     0.19600
C640        C  0.94321427  0.28574049  0.69681548     0.24600
C641        C  0.92678438  0.29731127  0.66743829    -0.23400
C642        C  0.89695619  0.32414845  0.66959494     0.19500
F643        F  0.88054937  0.33827670  0.64207052    -0.13300
F644        F  0.85406633  0.36020682  0.70010770    -0.15700
F645        F  0.97178467  0.25876520  0.69593035    -0.15700
F646        F  0.94575715  0.28733229  0.75546757    -0.13300
C647        C  0.78222531  0.10153113  0.56592202     0.24700
C648        C  0.76645315  0.13780396  0.54211924    -0.23400
C649        C  0.78456889  0.16426181  0.51694155     0.19600
C650        C  0.81709438  0.16219460  0.51843477     0.24600
C651        C  0.83228064  0.13252031  0.54456691    -0.23400
C652        C  0.81447380  0.10056246  0.56766030     0.19500
F653        F  0.82838924  0.06731609  0.59194999    -0.13300
F654        F  0.76663326  0.06499740  0.58721545    -0.15700
F655        F  0.83368890  0.19108013  0.99489885    -0.15700
F656        F  0.77122429  0.19032681  0.99012864    -0.13300
C657        C  0.67774589  0.09574314  0.63202376     0.24700
C658        C  0.66535248  0.12545511  0.60418065    -0.23400
C659        C  0.63646432  0.15603022  0.60704555     0.19600
C660        C  0.62027151  0.15619567  0.63687393     0.24600
C661        C  0.63244008  0.12527172  0.66474149    -0.23400
C662        C  0.66242609  0.09851180  0.66205718     0.19500
F663        F  0.67805030  0.07728367  0.68874625    -0.13300
F664        F  0.70510564  0.06391960  0.63048380    -0.15700
F665        F  0.59354838  0.19001580  0.63868493    -0.15700
F666        F  0.62448405  0.18888190  0.58157779    -0.13300
C667        C  0.75127135  0.40105469  0.76655890     0.24700
C668        C  0.73887791  0.36759852  0.79274960    -0.23400
C669        C  0.75903000  0.33516715  0.81381961     0.19600
C670        C  0.79096000  0.34115095  0.81084222     0.24600
C671        C  0.80369698  0.38216807  0.78758526    -0.23400
C672        C  0.78338335  0.40742446  0.76362060     0.19500
F673        F  0.79422892  0.43692376  0.73681598    -0.13300
F674        F  0.73235758  0.42981363  0.74456619    -0.15700
F675        F  0.80927968  0.30595679  0.83071167    -0.15700
F676        F  0.74774615  0.29777027  0.83765199    -0.13300
C677        C  0.67487860  0.06595522  0.92662194     0.24700
C678        C  0.64897251  0.52626116  0.92385472    -0.23400
C679        C  0.63619649  0.50143291  0.95262101     0.19600
C680        C  0.64988221  0.01456853  0.98357611     0.24600
C681        C  0.67593004  0.05359957  0.98607020    -0.23400
C682        C  0.68803758  0.07978255  0.95719278     0.19500
F683        F  0.71210508  0.12063879  0.95851308    -0.13300
F684        F  0.68722761  0.09182865  0.89941027    -0.15700
F685        F  0.63675100  0.49138579  0.51101697    -0.15700
F686        F  0.61202588  0.46091715  0.95069603    -0.13300
C687        C  0.67192973  0.28648557  0.99007821     0.24700
C688        C  0.66310512  0.22489774  0.99790294    -0.23400
C689        C  0.63924698  0.19663442  0.97870628     0.19600
C690        C  0.62969809  0.22300237  0.94903153     0.24600
C691        C  0.64240975  0.27982428  0.93871380    -0.23400
C692        C  0.66177832  0.31365029  0.96087769     0.19500
F693        F  0.67194770  0.37235880  0.95390557    -0.13300
F694        F  0.69106707  0.32008169  0.01027434    -0.15700
F695        F  0.60924261  0.19092050  0.92968849    -0.15700
F696        F  0.62576484  0.14203597  0.98720254    -0.13300
O697        O  0.61578215  0.78113741  0.38587682    -0.77400
C698        C  0.53858399  0.87916258  0.34168021     0.83600
O699        O  0.62213885  0.79468659  0.25957141    -0.78500
O700        O  0.60230972  0.02300008  0.30142357    -0.80000
O701        O  0.66091219  0.98608010  0.37120147    -0.79800
O702        O  0.65589252  0.84468182  0.39472153    -0.78400
Zn703      Zn  0.60041445  0.80630019  0.33925472     1.55700
O704        O  0.61156628  0.99057486  0.38443789    -0.79800
Cd705      Cd  0.65909810  0.89555686  0.35382382     1.59700
Cd706      Cd  0.63697488  0.87949610  0.28123126     1.59600
O707        O  0.69921528  0.87433921  0.33088003    -0.79800
O708        O  0.62223240  0.88132482  0.32687280    -1.90300
Cd709      Cd  0.59712737  0.95737573  0.33807297     1.59900
O710        O  0.68543721  0.87762573  0.27826424    -0.79800
O711        O  0.55121890  0.93303233  0.33995991    -0.78400
C712        C  0.61251938  0.74291153  0.27160604     0.84100
C713        C  0.63746725  0.80286931  0.40451857     0.83800
O714        O  0.55429948  0.82791864  0.34197064    -0.77400
C715        C  0.63983599  0.00166122  0.39136839     0.84600
O716        O  0.60539218  0.73864141  0.30206834    -0.77500
C717        C  0.70609607  0.87287668  0.30064529     0.84700
C718        C  0.61114890  0.01600586  0.27169723     0.85000
O719        O  0.62210878  0.96363937  0.26033210    -0.79900
C720        C  0.61552659  0.62589995  0.19764619     0.87600
C721        C  0.62251712  0.56846812  0.21913898    -0.52700
C722        C  0.60885157  0.57019792  0.24922757     0.10500
C723        C  0.58855443  0.62949052  0.25523410     0.21400
C724        C  0.57988552  0.62578874  0.19586911    -0.53400
C725        C  0.56593995  0.62804856  0.22586367     0.10600
C726        C  0.62369081  0.68403705  0.21903175    -0.52900
C727        C  0.60953902  0.68680264  0.24904571     0.11200
H728        H  0.63530406  0.52726774  0.21048538     0.15700
H729        H  0.57678008  0.63095246  0.27942435     0.01400
H730        H  0.56658885  0.62158945  0.17324286     0.16000
H731        H  0.63893730  0.72082289  0.21058373     0.15800
C732        C  0.73086344  0.63736927  0.04059267     0.87600
C733        C  0.71937609  0.57835425  0.52222761    -0.52700
C734        C  0.68802630  0.57493184  0.51855172     0.10500
C735        C  0.67069564  0.62726129  0.03777130     0.21400
C736        C  0.71414157  0.69327699  0.52367280    -0.53400
C737        C  0.68228832  0.68778753  0.52159807     0.10600
C738        C  0.71533637  0.63646187  0.07415429    -0.52900
C739        C  0.68404561  0.62908860  0.07315354     0.11200
H740        H  0.73496678  0.54902815  0.50754584     0.15700
H741        H  0.64537210  0.62068232  0.53782259     0.01400
H742        H  0.72639043  0.73128697  0.51246344     0.16000
H743        H  0.72798667  0.64417636  0.09696811     0.15800
O744        O  0.96506642  0.75633969  0.12880622    -0.77400
C745        C  0.03514163  0.63378443  0.08983906     0.83600
O746        O  0.94859576  0.72543693  0.50624301    -0.78500
O747        O  0.96806536  0.49838707  0.04677190    -0.80000
O748        O  0.91923916  0.61051494  0.14068842    -0.79800
O749        O  0.91593584  0.75480932  0.11514187    -0.78400
Zn750      Zn  0.97795050  0.71772518  0.08334081     1.55700
O751        O  0.95385718  0.53404722  0.12995876    -0.79800
Cd752      Cd  0.91655653  0.66340119  0.10041119     1.59700
Cd753      Cd  0.93445707  0.64145838  0.02767094     1.59600
O754        O  0.87491666  0.64407920  0.08007157    -0.79800
O755        O  0.95200694  0.64533608  0.07267973    -1.90300
Cd756      Cd  0.97265841  0.56497057  0.08543456     1.59900
O757        O  0.88539401  0.63935355  0.02685082    -0.79800
O758        O  0.01967750  0.58283050  0.09129448    -0.78400
C759        C  0.96195033  0.77608251  0.01688907     0.84100
C760        C  0.93698699  0.77065616  0.13529612     0.83800
O761        O  0.02234787  0.68761639  0.08615713    -0.77400
C762        C  0.93311640  0.55983018  0.14818585     0.84600
O763        O  0.97338821  0.78067847  0.04593109    -0.77500
C764        C  0.86606536  0.63835407  0.05048016     0.84700
C765        C  0.95962476  0.50366573  0.01671472     0.85000
O766        O  0.94894635  0.55553834  0.50544028    -0.79900
C767        C  0.95561915  0.88705708  0.44291925     0.87600
C768        C  0.94742961  0.94499651  0.46448771    -0.52700
C769        C  0.96220351  0.94757333  0.49433034     0.10500
C770        C  0.98370513  0.89010919  0.50029405     0.21400
C771        C  0.99123818  0.88754985  0.44082725    -0.53400
C772        C  0.00580148  0.88953103  0.47075111     0.10600
C773        C  0.94961448  0.82924154  0.46443133    -0.52900
C774        C  0.96379200  0.83060201  0.49444675     0.11200
H775        H  0.93181286  0.98191057  0.45624810     0.15700
H776        H  0.99590702  0.89157782  0.02440329     0.01400
H777        H  0.00391673  0.88416261  0.41789794     0.16000
H778        H  0.93775450  0.78729888  0.45576000     0.15800
C779        C  0.83915458  0.89184787  0.28605011     0.87600
C780        C  0.85095810  0.95378072  0.27141281    -0.52700
C781        C  0.88242796  0.95576435  0.26650856     0.10500
C782        C  0.89921351  0.89821017  0.28149174     0.21400
C783        C  0.85403131  0.83835853  0.26548143    -0.53400
C784        C  0.88530117  0.84332629  0.26138141     0.10600
C785        C  0.85568119  0.89149391  0.31903225    -0.52900
C786        C  0.88711333  0.89262507  0.31729222     0.11200
H787        H  0.83559429  0.99169897  0.26427480     0.15700
H788        H  0.92476359  0.89843691  0.28035924     0.01400
H789        H  0.84014822  0.80546125  0.25098041     0.16000
H790        H  0.84337582  0.89335420  0.34219020     0.15800
O791        O  0.51782897  0.67882339  0.23254292    -0.77400
C792        C  0.43197390  0.74379003  0.18042139     0.83600
O793        O  0.44513127  0.71407876  0.31113111    -0.78500
O794        O  0.37191787  0.61709888  0.23723006    -0.80000
O795        O  0.45576633  0.52079969  0.18374208    -0.79800
O796        O  0.51830552  0.57370886  0.22734863    -0.78400
Zn797      Zn  0.47288937  0.70215382  0.23423084     1.55700
O798        O  0.41642985  0.58692956  0.17538075    -0.79800
Cd799      Cd  0.47159608  0.55081154  0.23067626     1.59700
Cd800      Cd  0.43262015  0.62722399  0.28903980     1.59600
O801        O  0.46723380  0.48404891  0.26808397    -0.79800
O802        O  0.44867460  0.62883163  0.24393279    -1.90300
Cd803      Cd  0.41227217  0.64040285  0.21619497     1.59900
O804        O  0.44966270  0.54443195  0.30993682    -0.79800
O805        O  0.41009744  0.72966315  0.19947741    -0.78400
C806        C  0.45724872  0.76455371  0.29997403     0.84100
C807        C  0.53222148  0.62661722  0.22913087     0.83800
O808        O  0.45995313  0.73313771  0.18878333    -0.77400
C809        C  0.43403215  0.54264231  0.16550698     0.84600
O810        O  0.46728575  0.76764584  0.27060058    -0.77500
C811        C  0.45982723  0.49152489  0.29836568     0.84700
C812        C  0.36422317  0.61153289  0.26700145     0.85000
O813        O  0.38407062  0.61742552  0.29024847    -0.79900
C814        C  0.45530064  0.88201256  0.37315499     0.87600
C815        C  0.44636799  0.82437548  0.35193966    -0.52700
C816        C  0.46039347  0.82080066  0.32204095     0.10500
C817        C  0.48207087  0.87700826  0.31551353     0.21400
C818        C  0.49089872  0.88018383  0.37482689    -0.53400
C819        C  0.50481744  0.87682104  0.34484995     0.10600
C820        C  0.44885268  0.93982465  0.35153926    -0.52900
C821        C  0.46240415  0.93740675  0.32128797     0.11200
H822        H  0.43089051  0.78809737  0.36055019     0.15700
H823        H  0.49376440  0.87484178  0.29128763     0.01400
H824        H  0.50408259  0.88336917  0.39760382     0.16000
H825        H  0.43695365  0.98203585  0.36000518     0.15800
C826        C  0.34162228  0.86017836  0.03020794     0.87600
C827        C  0.35537621  0.80207402  0.04738641    -0.52700
C828        C  0.38681583  0.80300276  0.05101710     0.10500
C829        C  0.40201168  0.85712467  0.03207496     0.21400
C830        C  0.35677955  0.91764199  0.04759115    -0.53400
C831        C  0.38859126  0.91620669  0.04910556     0.10600
C832        C  0.35654051  0.85617634  0.99638020    -0.52900
C833        C  0.38806749  0.85668061  0.99699018     0.11200
H834        H  0.34215438  0.76704718  0.05995074     0.15700
H835        H  0.42756085  0.85486427  0.03140456     0.01400
H836        H  0.34286206  0.95232716  0.06084051     0.16000
H837        H  0.34322042  0.85458824  0.47359447     0.15800
O838        O  0.11694205  0.98209746  0.43259501    -0.77400
C839        C  0.03956406  0.88484698  0.47412710     0.83600
O840        O  0.12518862  0.96449336  0.05788850    -0.78500
O841        O  0.10294890  0.73704906  0.01714151    -0.80000
O842        O  0.16122909  0.77268055  0.44781875    -0.79800
O843        O  0.15528862  0.91431370  0.42214177    -0.78400
Zn844      Zn  0.10162609  0.95461364  0.47837996     1.55700
O845        O  0.11197396  0.76852609  0.43377091    -0.79800
Cd846      Cd  0.15952978  0.86406188  0.46335973     1.59700
Cd847      Cd  0.13916321  0.87871331  0.03612305     1.59600
O848        O  0.20036585  0.88503472  0.48530620    -0.79800
O849        O  0.12312887  0.87814196  0.49070196    -1.90300
Cd850      Cd  0.09759131  0.80266945  0.47988942     1.59900
O851        O  0.18771787  0.87750066  0.03790952    -0.79800
O852        O  0.05176305  0.83021841  0.47660024    -0.78400
C853        C  0.11481758  0.01642677  0.04618950     0.84100
C854        C  0.13763648  0.95896633  0.41330044     0.83800
O855        O  0.05562346  0.93516670  0.47418123    -0.77400
C856        C  0.14033071  0.75753247  0.42726001     0.84600
O857        O  0.10665061  0.02106178  0.01596817    -0.77500
C858        C  0.20792465  0.88337453  0.01544575     0.84700
C859        C  0.11317377  0.74307113  0.04658378     0.85000
O860        O  0.12493146  0.79479530  0.05759381    -0.79900
C861        C  0.11897334  0.63236531  0.12052261     0.87600
C862        C  0.12655731  0.68863605  0.09856271    -0.52700
C863        C  0.11131755  0.68873583  0.06906804     0.10500
C864        C  0.09082991  0.63003649  0.06324233     0.21400
C865        C  0.08354931  0.63185443  0.12265359    -0.53400
C866        C  0.06893782  0.63072956  0.09289340     0.10600
C867        C  0.12731181  0.57467773  0.09850012    -0.52900
C868        C  0.11220204  0.57226558  0.06883977     0.11200
H869        H  0.14290108  0.72528863  0.10530034     0.15700
H870        H  0.07846144  0.62918428  0.03923120     0.01400
H871        H  0.07108443  0.63335507  0.14576240     0.16000
H872        H  0.14389436  0.53861028  0.10552990     0.15800
C873        C  0.23080255  0.62021657  0.27848029     0.87600
C874        C  0.22089728  0.68121400  0.29692028    -0.52700
C875        C  0.18963792  0.68809632  0.30073396     0.10500
C876        C  0.17099640  0.63754157  0.28163570     0.21400
C877        C  0.21319166  0.56703908  0.29539536    -0.53400
C878        C  0.18165720  0.57580504  0.29743458     0.10600
C879        C  0.21508222  0.62706624  0.24485775    -0.52900
C880        C  0.18393886  0.63523722  0.24653133     0.11200
H881        H  0.23692844  0.71168893  0.31014812     0.15700
H882        H  0.14566495  0.64592738  0.28148475     0.01400
H883        H  0.22545760  0.52931509  0.30772772     0.16000
H884        H  0.22707337  0.62628633  0.22152491     0.15800
C885        C  0.15517849  0.57834334  0.20224618     0.24700
C886        C  0.16454390  0.63554790  0.21665917    -0.23400
C887        C  0.15647902  0.69223358  0.20174911     0.19600
C888        C  0.14067867  0.69170227  0.17159420     0.24600
C889        C  0.13412665  0.63392444  0.15482754    -0.23400
C890        C  0.13946845  0.57744269  0.17210107     0.19500
F891        F  0.12887050  0.52118318  0.16046309    -0.13300
F892        F  0.16148136  0.52309810  0.21737942    -0.15700
F893        F  0.13090477  0.74789208  0.15977309    -0.15700
F894        F  0.16408956  0.74817139  0.21634566    -0.13300
C895        C  0.17585765  0.69437645  0.39222665     0.24700
C896        C  0.15021206  0.73491190  0.39460554    -0.23400
C897        C  0.13831271  0.76282948  0.36597747     0.19600
C898        C  0.15227189  0.75077103  0.33543752     0.24600
C899        C  0.17804259  0.71031623  0.33318124    -0.23400
C900        C  0.18956634  0.68198354  0.36196528     0.19500
F901        F  0.21325885  0.63965683  0.36075084    -0.13300
F902        F  0.18762943  0.66636974  0.41938673    -0.15700
F903        F  0.14059253  0.77812257  0.30808128    -0.15700
F904        F  0.11422038  0.80416964  0.36782233    -0.13300
C905        C  0.13050312  0.54213033  0.37036728     0.24700
C906        C  0.14269877  0.48365726  0.37974701    -0.23400
C907        C  0.16089125  0.94928490  0.35703562     0.19600
C908        C  0.17069539  0.47683391  0.32788157     0.24600
C909        C  0.16249968  0.53939560  0.32098711    -0.23400
C910        C  0.13964232  0.56902812  0.34086052     0.19500
F911        F  0.12687387  0.62525635  0.33312471    -0.13300
F912        F  0.11110643  0.57519548  0.39048351    -0.15700
F913        F  0.18893609  0.44274083  0.30698194    -0.15700
F914        F  0.17108323  0.89003218  0.36341162    -0.13300
C915        C  0.25361144  0.84380142  0.04698372     0.24700
C916        C  0.24122095  0.88443652  0.02348012    -0.23400
C917        C  0.26135772  0.92076647  0.00479685     0.19600
C918        C  0.29334395  0.91360447  0.00801763     0.24600
C919        C  0.30624547  0.86811801  0.02920576    -0.23400
C920        C  0.28568474  0.83625580  0.05027176     0.19500
F921        F  0.29578195  0.80003180  0.07523249    -0.13300
F922        F  0.23463798  0.80927579  0.06602463    -0.15700
F923        F  0.31171772  0.95098618  0.48991150    -0.15700
F924        F  0.24996033  0.96275840  0.48298964    -0.13300
C925        C  0.44959135  0.83764628  0.43084790     0.24700
C926        C  0.43917503  0.88041513  0.40669463    -0.23400
C927        C  0.41128342  0.91387400  0.41296400     0.19600
C928        C  0.39586696  0.90792258  0.44271035     0.24600
C929        C  0.40638274  0.86545120  0.46651932    -0.23400
C930        C  0.43361102  0.83090487  0.46045956     0.19500
F931        F  0.44387113  0.78794592  0.98237333    -0.13300
F932        F  0.47454167  0.79976357  0.42528451    -0.15700
F933        F  0.37014036  0.94381881  0.44794000    -0.15700
F934        F  0.39700530  0.94908066  0.38984242    -0.13300
C935        C  0.31721546  0.62218234  0.30286472     0.24700
C936        C  0.33106278  0.60054509  0.27367268    -0.23400
C937        C  0.31216706  0.57303702  0.24907265     0.19600
C938        C  0.27998909  0.57524223  0.25165099     0.22600
C939        C  0.26581814  0.60765368  0.27821134    -0.23400
C940        C  0.28490913  0.62449653  0.30541001     0.19500
F941        F  0.27260489  0.64319914  0.33459238    -0.13300
F942        F  0.33478052  0.64380804  0.32839257    -0.15700
F943        F  0.26298245  0.54440629  0.22834953    -0.15700
F944        F  0.32484356  0.54448157  0.22214721    -0.13300
C945        C  0.42576127  0.74925761  0.08773742     0.24700
C946        C  0.39904240  0.78653788  0.08407767    -0.23400
C947        C  0.38530426  0.81411745  0.11239778     0.19600
C948        C  0.39758798  0.80366174  0.14344514     0.24600
C949        C  0.42379497  0.76530852  0.14729286    -0.23400
C950        C  0.43803154  0.73840828  0.11920799     0.19500
F951        F  0.46264716  0.69878306  0.12236190    -0.13300
F952        F  0.43969251  0.72303310  0.06094560    -0.15700
F953        F  0.38341589  0.83034151  0.17002347    -0.15700
F954        F  0.36009741  0.85243249  0.11019977    -0.13300
C955        C  0.43179264  0.93140773  0.09141856     0.24700
C956        C  0.40636691  0.95607868  0.07342248    -0.23400
C957        C  0.39525396  0.01636451  0.08244212     0.19600
C958        C  0.40580862  0.04631718  0.11113694     0.24600
C959        C  0.42753192  0.01627504  0.13192918    -0.23400
C960        C  0.44149590  0.96011757  0.12082307     0.19500
F961        F  0.46360843  0.93100518  0.13905662    -0.13300
F962        F  0.44678685  0.87794325  0.08209125    -0.15700
F963        F  0.39435542  0.60459821  0.11889473    -0.15700
F964        F  0.37356354  0.04609034  0.06390144    -0.13300
C965        C  0.94829869  0.92606223  0.38370238     0.24700
C966        C  0.93842692  0.88719364  0.40955669    -0.23400
C967        C  0.91079647  0.85280643  0.40442012     0.19600
C968        C  0.89625960  0.85076228  0.37379320     0.24600
C969        C  0.90631599  0.88871918  0.34795434    -0.23400
C970        C  0.93240101  0.92687814  0.35337532     0.19500
F971        F  0.94162584  0.96750115  0.33006030    -0.13300
F972        F  0.97261291  0.96556768  0.38814308    -0.15700
F973        F  0.87152826  0.81203718  0.36987505    -0.15700
F974        F  0.89584978  0.82462866  0.42934833    -0.13300
C975        C  0.88967414  0.02461352  0.18110451     0.24700
C976        C  0.92174322  0.52934475  0.17770999    -0.23400
C977        C  0.94076932  0.51693150  0.20479666     0.19600
C978        C  0.92769534  0.49685233  0.23430834     0.24600
C979        C  0.89567165  0.98896773  0.23745362    -0.23400
C980        C  0.87679198  0.00315246  0.20988547     0.19500
F981        F  0.84580692  0.99377955  0.20934897    -0.13300
F982        F  0.87056586  0.03765986  0.15538407    -0.15700
F983        F  0.94669467  0.48893220  0.26055425    -0.15700
F984        F  0.97173967  0.52654382  0.20308676    -0.13300
C985        C  0.88375244  0.83855215  0.19969004     0.24700
C986        C  0.89944703  0.82480857  0.22920536    -0.23400
C987        C  0.92977602  0.80041979  0.22743612     0.19600
C988        C  0.94337548  0.78648216  0.19676534     0.24600
C989        C  0.92706693  0.79839059  0.16735965    -0.23400
C990        C  0.89752024  0.82650100  0.16940217     0.19500
F991        F  0.88129577  0.84090249  0.14179762    -0.13300
F992        F  0.85496801  0.86463169  0.19985675    -0.15700
F993        F  0.97167990  0.75834167  0.19594705    -0.15700
F994        F  0.94579695  0.78807814  0.25541711    -0.13300
C995        C  0.78214144  0.60039989  0.06548493     0.24700
C996        C  0.76650461  0.63730833  0.04184651    -0.23400
C997        C  0.78477123  0.66445622  0.01699625     0.19600
C998        C  0.81728120  0.66229520  0.01867723     0.24600
C999        C  0.83232771  0.63190347  0.04466457    -0.23400
C1000       C  0.81439610  0.59934168  0.06741657     0.19500
F1001       F  0.82818736  0.56544545  0.09153599    -0.13300
F1002       F  0.76638371  0.56350497  0.08647317    -0.15700
F1003       F  0.83401704  0.69091864  0.49514550    -0.15700
F1004       F  0.77159710  0.69064663  0.49014653    -0.13300
C1005       C  0.67772582  0.59562165  0.13164785     0.24700
C1006       C  0.66539625  0.62578448  0.10391269    -0.23400
C1007       C  0.63657844  0.65660138  0.10688770     0.19600
C1008       C  0.62041721  0.65664952  0.13674259     0.24600
C1009       C  0.63251422  0.62524755  0.16450520    -0.23400
C1010       C  0.66241638  0.59813785  0.16169454     0.19500
F1011       F  0.67800037  0.57637183  0.18828384    -0.13300
F1012       F  0.70501592  0.56357239  0.12998360    -0.15700
F1013       F  0.59378952  0.69076360  0.13868887    -0.15700
F1014       F  0.62464149  0.68975731  0.08150347    -0.13300
C1015       C  0.75165382  0.90250690  0.26649562     0.24700
C1016       C  0.73922852  0.86843865  0.29245452    -0.23400
C1017       C  0.75936373  0.83566911  0.31339880     0.19600
C1018       C  0.79129054  0.84184541  0.31055137     0.24600
C1019       C  0.80404122  0.88343878  0.28759016    -0.23400
C1020       C  0.78377250  0.90908713  0.26370096     0.19500
F1021       F  0.79468604  0.93919859  0.23711594    -0.13300
F1022       F  0.73276600  0.93163902  0.24461406    -0.15700
F1023       F  0.80959210  0.80621409  0.33022641    -0.15700
F1024       F  0.74806156  0.79774684  0.33699163    -0.13300
C1025       C  0.67466752  0.56599290  0.42651277     0.24700
C1026       C  0.64930620  0.02584444  0.42404564    -0.23400
C1027       C  0.63672603  0.00046992  0.45277617     0.19600
C1028       C  0.64944721  0.51540733  0.48354864     0.24600
C1029       C  0.67567450  0.55396564  0.48597629    -0.23400
C1030       C  0.68788065  0.57977594  0.45705690     0.19500
F1031       F  0.71212752  0.62019531  0.45830046    -0.13300
F1032       F  0.68718235  0.59137228  0.39925669    -0.15700
F1033       F  0.63728912  0.99016125  0.01100242    -0.15700
F1034       F  0.61280757  0.95934643  0.45079872    -0.13300
C1035       C  0.67235284  0.78667432  0.48961205     0.24700
C1036       C  0.66332914  0.72531399  0.49764290    -0.23400
C1037       C  0.63925948  0.69727069  0.47864630     0.19600
C1038       C  0.62967198  0.72351401  0.44895772     0.24600
C1039       C  0.64259548  0.77996026  0.43841967    -0.23400
C1040       C  0.66216562  0.81371020  0.46040548     0.19500
F1041       F  0.67250879  0.87219905  0.45324137    -0.13300
F1042       F  0.69172398  0.82016940  0.50959396    -0.15700
F1043       F  0.60895528  0.69167238  0.42982532    -0.15700
F1044       F  0.62559202  0.64299180  0.48734151    -0.13300
O1045       O  0.61579045  0.78115547  0.88582862    -0.77400
C1046       C  0.53853528  0.87919369  0.84168737     0.83600
O1047       O  0.62211624  0.79470624  0.75954404    -0.78500
O1048       O  0.60226809  0.02300274  0.80141852    -0.80000
O1049       O  0.66089097  0.98613641  0.87110121    -0.79800
O1050       O  0.65587590  0.84475926  0.89469468    -0.78400
Zn1051     Zn  0.60037894  0.80632795  0.83922809     1.55700
O1052       O  0.61155911  0.99056283  0.88439567    -0.79800
Cd1053     Cd  0.65907968  0.89557968  0.85377804     1.59700
Cd1054     Cd  0.63696784  0.87949717  0.78120712     1.59600
O1055       O  0.69919997  0.87426620  0.83085637    -0.79800
O1056       O  0.62220593  0.88132660  0.82683888    -1.90300
Cd1057     Cd  0.59709153  0.95736529  0.83804895     1.59900
O1058       O  0.68543680  0.87755589  0.77823904    -0.79800
O1059       O  0.55117433  0.93305746  0.83995388    -0.78400
C1060       C  0.61248595  0.74293995  0.77157946     0.84100
C1061       C  0.63746870  0.80289950  0.90447616     0.83800
O1062       O  0.55425255  0.82794902  0.84197601    -0.77400
C1063       C  0.63983198  0.00167901  0.89129610     0.84600
O1064       O  0.60534923  0.73867957  0.80203920    -0.77500
C1065       C  0.70608983  0.87276762  0.80062458     0.84700
C1066       C  0.61112376  0.01601856  0.77169923     0.85000
O1067       O  0.62210304  0.96366488  0.76033684    -0.79900
C1068       C  0.61552313  0.62590297  0.69763816     0.87600
C1069       C  0.62250803  0.56848400  0.71913539    -0.52700
C1070       C  0.60883618  0.57022115  0.74921693     0.10500
C1071       C  0.58852828  0.62950560  0.75521130     0.21400
C1072       C  0.57988189  0.62577840  0.69584198    -0.53400
C1073       C  0.56592212  0.62804033  0.72583089     0.10600
C1074       C  0.62367303  0.68405145  0.71901846    -0.52900
C1075       C  0.60950930  0.68682554  0.74902428     0.11200
H1076       H  0.63528128  0.52726466  0.71048568     0.15700
H1077       H  0.57674704  0.63097031  0.77939768     0.01400
H1078       H  0.56659977  0.62159577  0.67320474     0.16000
H1079       H  0.63892180  0.72083634  0.71057340     0.15800
C1080       C  0.73088688  0.63739923  0.54061838     0.87600
C1081       C  0.71937687  0.57829971  0.02220423    -0.52700
C1082       C  0.68802909  0.57484297  0.01850806     0.10500
C1083       C  0.67071677  0.62736711  0.53782306     0.21400
C1084       C  0.71410721  0.69321657  0.02363901    -0.53400
C1085       C  0.68226042  0.68769628  0.02154767     0.10600
C1086       C  0.71537085  0.63650450  0.57418778    -0.52900
C1087       C  0.68407848  0.62917776  0.57319280     0.11200
H1088       H  0.73498386  0.54898048  0.00753927     0.15700
H1089       H  0.64535249  0.62055120  0.03774783     0.01400
H1090       H  0.72634633  0.73126640  0.01244227     0.16000
H1091       H  0.72802239  0.64419557  0.59700274     0.15800
O1092       O  0.96508289  0.75606329  0.62880333    -0.77400
C1093       C  0.03515681  0.63359161  0.58980982     0.83600
O1094       O  0.94855519  0.72564253  0.00628841    -0.78500
O1095       O  0.96808456  0.49819152  0.54674430    -0.80000
O1096       O  0.91921177  0.61016008  0.64062030    -0.79800
O1097       O  0.91594582  0.75452330  0.61516193    -0.78400
Zn1098     Zn  0.97796189  0.71752059  0.58331754     1.55700
O1099       O  0.95389543  0.53380750  0.62992112    -0.79800
Cd1100     Cd  0.91656602  0.66315169  0.60037321     1.59700
Cd1101     Cd  0.93448599  0.64126559  0.52762675     1.59600
O1102       O  0.87494205  0.64391681  0.57998843    -0.79800
O1103       O  0.95202336  0.64513273  0.57264615    -1.90300
Cd1104     Cd  0.97268104  0.56477207  0.58540130     1.59900
O1105       O  0.88542177  0.63916953  0.52676997    -0.79800
O1106       O  0.01969535  0.58263551  0.59126160    -0.78400
C1107       C  0.96197289  0.77588664  0.51685621     0.84100
C1108       C  0.93700315  0.77033817  0.63531505     0.83800
O1109       O  0.02236175  0.68742242  0.58612821    -0.77400
C1110       C  0.93311923  0.55951440  0.64812894     0.84600
O1111       O  0.97339156  0.78048779  0.54590782    -0.77500
C1112       C  0.86609122  0.63818588  0.55039733     0.84700
C1113       C  0.95964308  0.50346899  0.51668801     0.85000
O1114       O  0.94892071  0.55573419  0.00547164    -0.79900
C1115       C  0.95559148  0.88720419  0.94293713     0.87600
C1116       C  0.94740120  0.94516360  0.96449492    -0.52700
C1117       C  0.96217612  0.94776322  0.99433862     0.10500
C1118       C  0.98368064  0.89030453  0.00031043     0.21400
C1119       C  0.99121080  0.88770264  0.94084250    -0.53400
C1120       C  0.00577660  0.88970733  0.97076562     0.10600
C1121       C  0.94959305  0.82940643  0.96446185    -0.52900
C1122       C  0.96376877  0.83079088  0.99447555     0.11200
H1123       H  0.93178115  0.98206733  0.95624962     0.15700
H1124       H  0.99593060  0.89136608  0.52438770     0.01400
H1125       H  0.00388740  0.88430577  0.91791222     0.16000
H1126       H  0.93774615  0.78744442  0.95579685     0.15800
C1127       C  0.83916677  0.89145931  0.78603464     0.87600
C1128       C  0.85098162  0.95333588  0.77134385    -0.52700
C1129       C  0.88245196  0.95528938  0.76643712     0.10500
C1130       C  0.89922795  0.89777503  0.78147389     0.21400
C1131       C  0.85403775  0.83789460  0.76551486    -0.53400
C1132       C  0.88530907  0.84282975  0.76141469     0.10600
C1133       C  0.85569045  0.89120291  0.81901896    -0.52900
C1134       C  0.88712347  0.89232459  0.81727919     0.11200
H1135       H  0.83562348  0.99125063  0.76419189     0.15700
H1136       H  0.92477834  0.89796775  0.78034521     0.01400
H1137       H  0.84015126  0.80498014  0.75102789     0.16000
H1138       H  0.84338440  0.89313587  0.84217572     0.15800
O1139       O  0.51781175  0.67881657  0.73254029    -0.77400
C1140       C  0.43198687  0.74372986  0.68034630     0.83600
O1141       O  0.44512549  0.71407235  0.81110159    -0.78500
O1142       O  0.37188627  0.61725226  0.73719943    -0.80000
O1143       O  0.45568688  0.52069789  0.68371267    -0.79800
O1144       O  0.51827538  0.57371323  0.72726114    -0.78400
Zn1145     Zn  0.47286915  0.70215620  0.73419696     1.55700
O1146       O  0.41633723  0.58679393  0.67534895    -0.79800
Cd1147     Cd  0.47156215  0.55079567  0.73062327     1.59700
Cd1148     Cd  0.43259181  0.62725314  0.78899449     1.59600
O1149       O  0.46721917  0.48406275  0.76805443    -0.79800
O1150       O  0.44864548  0.62882845  0.74388175    -1.90300
Cd1151     Cd  0.41224376  0.64038164  0.71613688     1.59900
O1152       O  0.44959293  0.54442443  0.80988874    -0.79800
O1153       O  0.41010052  0.72961235  0.69939000    -0.78400
C1154       C  0.45722401  0.76456399  0.79994466     0.84100
C1155       C  0.53219921  0.62661253  0.72908697     0.83800
O1156       O  0.45996286  0.73310330  0.68872943    -0.77400
C1157       C  0.43393137  0.54248356  0.66548595     0.84600
O1158       O  0.46724710  0.76767458  0.77056519    -0.77500
C1159       C  0.45978341  0.49152930  0.79832897     0.84700
C1160       C  0.36418924  0.61174379  0.76697234     0.85000
O1161       O  0.38404043  0.61759502  0.79021677    -0.79900
C1162       C  0.45522600  0.88202431  0.87313363     0.87600
C1163       C  0.44631553  0.82437482  0.85191272    -0.52700
C1164       C  0.46035612  0.82080729  0.82201958     0.10500
C1165       C  0.48202641  0.87702931  0.81550340     0.21400
C1166       C  0.49082637  0.88021419  0.87482194    -0.53400
C1167       C  0.50476214  0.87686057  0.84485089     0.10600
C1168       C  0.44877748  0.93982385  0.85150636    -0.52900
C1169       C  0.46234471  0.93741112  0.82126340     0.11200
H1170       H  0.43083907  0.78808715  0.86051438     0.15700
H1171       H  0.49373036  0.87486779  0.79128309     0.01400
H1172       H  0.50399578  0.88336930  0.89760955     0.16000
H1173       H  0.43687835  0.98204203  0.85995520     0.15800
C1174       C  0.34161425  0.85997544  0.53013418     0.87600
C1175       C  0.35536827  0.80187727  0.54731520    -0.52700
C1176       C  0.38680811  0.80281851  0.55094885     0.10500
C1177       C  0.40200074  0.85695795  0.53201904     0.21400
C1178       C  0.35675807  0.91744947  0.54751761    -0.53400
C1179       C  0.38856886  0.91602787  0.54904493     0.10600
C1180       C  0.35654017  0.85596944  0.49631091    -0.52900
C1181       C  0.38806708  0.85651234  0.49693117     0.11200
H1182       H  0.34213892  0.76684637  0.55987144     0.15700
H1183       H  0.42754994  0.85472544  0.53136597     0.01400
H1184       H  0.34283212  0.95212709  0.56076227     0.16000
H1185       H  0.34321617  0.85483969  0.97366605     0.15800
O1186       O  0.11689966  0.98230351  0.93261880    -0.77400
C1187       C  0.03954160  0.88503967  0.97414225     0.83600
O1188       O  0.12521984  0.96428943  0.55785042    -0.78500
O1189       O  0.10297056  0.73682344  0.51711749    -0.80000
O1190       O  0.16125880  0.77302007  0.94785723    -0.79800
O1191       O  0.15529048  0.91460992  0.92219673    -0.78400
Zn1192     Zn  0.10159537  0.95483662  0.97841579     1.55700
O1193       O  0.11200158  0.76878214  0.93381305    -0.79800
Cd1194     Cd  0.15953995  0.86438718  0.96341339     1.59700
Cd1195     Cd  0.13916747  0.87848250  0.53609008     1.59600
O1196       O  0.20037672  0.88543732  0.98535313    -0.79800
O1197       O  0.12311860  0.87838969  0.99073928    -1.90300
Cd1198     Cd  0.09758744  0.80290637  0.97991660     1.59900
O1199       O  0.18771752  0.87720681  0.53787276    -0.79800
O1200       O  0.05175167  0.83041663  0.97659393    -0.78400
C1201       C  0.11485446  0.01622318  0.54614683     0.84100
C1202       C  0.13761386  0.95920507  0.91333714     0.83800
O1203       O  0.05559266  0.93537093  0.97422329    -0.77400
C1204       C  0.14036268  0.75784470  0.92729948     0.84600
O1205       O  0.10668509  0.02084657  0.51592632    -0.77500
C1206       C  0.20791865  0.88301721  0.51539898     0.84700
C1207       C  0.11318290  0.74286178  0.54656419     0.85000
O1208       O  0.12492300  0.79459860  0.55757787    -0.79900
C1209       C  0.11898189  0.63216609  0.62050638     0.87600
C1210       C  0.12657108  0.68843080  0.59854416    -0.52700
C1211       C  0.11133323  0.68852843  0.56904809     0.10500
C1212       C  0.09084519  0.62983388  0.56322211     0.21400
C1213       C  0.08355794  0.63166414  0.62263152    -0.53400
C1214       C  0.06895099  0.63053685  0.59286947     0.10600
C1215       C  0.12732050  0.57447001  0.59848652    -0.52900
C1216       C  0.11221363  0.57206151  0.56882272     0.11200
H1217       H  0.14290755  0.72509275  0.60529222     0.15700
H1218       H  0.07847854  0.62898166  0.53920989     0.01400
H1219       H  0.07108960  0.63317254  0.64573807     0.16000
H1220       H  0.14390661  0.53840680  0.60551046     0.15800
C1221       C  0.23076739  0.62057374  0.77847698     0.87600
C1222       C  0.22084573  0.68158550  0.79689035    -0.52700
C1223       C  0.18958611  0.68839915  0.80073367     0.10500
C1224       C  0.17095603  0.63776580  0.78167568     0.21400
C1225       C  0.21320165  0.56739020  0.79543722    -0.53400
C1226       C  0.18166576  0.57608335  0.79749821     0.10600
C1227       C  0.21501843  0.62732458  0.74486498    -0.52900
C1228       C  0.18387280  0.63542276  0.74655887     0.11200
H1229       H  0.23687274  0.71212000  0.81008593     0.15700
H1230       H  0.14562008  0.64609219  0.78154266     0.01400
H1231       H  0.22549871  0.52971693  0.80777716     0.16000
H1232       H  0.22699204  0.62653846  0.72152201     0.15800
C1233       C  0.15520199  0.57834595  0.70227102     0.24700
C1234       C  0.16446651  0.63561299  0.71669282    -0.23400
C1235       C  0.15633705  0.69224453  0.70176594     0.19600
C1236       C  0.14056464  0.69160526  0.67159437     0.24600
C1237       C  0.13412240  0.63378403  0.65481843    -0.23400
C1238       C  0.13953673  0.57733594  0.67209902     0.19500
F1239       F  0.12904385  0.52100149  0.66045209    -0.13300
F1240       F  0.16156263  0.52314499  0.71742202    -0.15700
F1241       F  0.13072495  0.74773164  0.65975059    -0.15700
F1242       F  0.16386826  0.74823445  0.71635534    -0.13300
C1243       C  0.17593771  0.69483738  0.89224987     0.24700
C1244       C  0.15024414  0.73524205  0.89464231    -0.23400
C1245       C  0.13826809  0.76302986  0.86601394     0.19600
C1246       C  0.15220252  0.75098362  0.83546033     0.24600
C1247       C  0.17801344  0.71063858  0.83318764    -0.23400
C1248       C  0.18960851  0.68242133  0.86197253     0.19500
F1249       F  0.21333572  0.64017793  0.86074823    -0.13300
F1250       F  0.18779110  0.66697064  0.91941124    -0.15700
F1251       F  0.14045063  0.77821407  0.80810480    -0.15700
F1252       F  0.11411354  0.80421688  0.86786631    -0.13300
C1253       C  0.13051640  0.54230109  0.87042784     0.24700
C1254       C  0.14272262  0.48383921  0.87980498    -0.23400
C1255       C  0.16091440  0.94953848  0.85709349     0.19600
C1256       C  0.17077040  0.47709812  0.82796954     0.24600
C1257       C  0.16254418  0.53964578  0.82107067    -0.23400
C1258       C  0.13967160  0.56923830  0.84093913     0.19500
F1259       F  0.12690240  0.62547151  0.83321904    -0.13300
F1260       F  0.11109309  0.57532303  0.89053361    -0.15700
F1261       F  0.18904847  0.44305008  0.80708740    -0.15700
F1262       F  0.17113673  0.89031240  0.86348794    -0.13300
C1263       C  0.25362359  0.84357864  0.54696518     0.24700
C1264       C  0.24121469  0.88410843  0.52342150    -0.23400
C1265       C  0.26133270  0.92040856  0.50470141     0.19600
C1266       C  0.29331978  0.91328045  0.50790582     0.24600
C1267       C  0.30623981  0.86788689  0.52913369    -0.23400
C1268       C  0.28570135  0.83612353  0.55026283     0.19500
F1269       F  0.29583134  0.80012639  0.57530086    -0.13300
F1270       F  0.23466774  0.80908987  0.56604378    -0.15700
F1271       F  0.31176151  0.95134862  0.99006674    -0.15700
F1272       F  0.25000602  0.96317097  0.98310248    -0.13300
C1273       C  0.44947267  0.83752004  0.93079209     0.24700
C1274       C  0.43909688  0.88041496  0.90668009    -0.23400
C1275       C  0.41127574  0.91407887  0.91302590     0.19600
C1276       C  0.39589239  0.90816865  0.94279718     0.24600
C1277       C  0.40637088  0.86557753  0.96656369    -0.23400
C1278       C  0.43352725  0.83084015  0.96043363     0.19500
F1279       F  0.44399772  0.78812108  0.48243576    -0.13300
F1280       F  0.47435495  0.79948536  0.92515997    -0.15700
F1281       F  0.37022696  0.94421447  0.94809386    -0.15700
F1282       F  0.39701792  0.94944508  0.88995917    -0.13300
C1283       C  0.31718788  0.62255711  0.80282953     0.24700
C1284       C  0.33102404  0.60085632  0.77364448    -0.23400
C1285       C  0.31211743  0.57336706  0.74904968     0.19600
C1286       C  0.27994283  0.57561133  0.75163276     0.22600
C1287       C  0.26578424  0.60806860  0.77818564    -0.23400
C1288       C  0.28488335  0.62494069  0.80537341     0.19500
F1289       F  0.27258988  0.64372785  0.83454657    -0.13300
F1290       F  0.33476358  0.64416105  0.82835409    -0.15700
F1291       F  0.26292862  0.54474961  0.72834707    -0.15700
F1292       F  0.32478056  0.54477546  0.72212707    -0.13300
C1293       C  0.42575604  0.74907901  0.58766404     0.24700
C1294       C  0.39903659  0.78635875  0.58400507    -0.23400
C1295       C  0.38531585  0.81399269  0.61231910     0.19600
C1296       C  0.39761616  0.80359187  0.64336235     0.24600
C1297       C  0.42381733  0.76522468  0.64721325    -0.23400
C1298       C  0.43803852  0.73826954  0.61913341     0.19500
F1299       F  0.46265155  0.69863944  0.62229269    -0.13300
F1300       F  0.43967915  0.72283039  0.56087329    -0.15700
F1301       F  0.38346543  0.83033936  0.66993570    -0.15700
F1302       F  0.36011909  0.85233372  0.61011694    -0.13300
C1303       C  0.43173546  0.93121038  0.59140110     0.24700
C1304       C  0.40632705  0.95588758  0.57338055    -0.23400
C1305       C  0.39519389  0.01615028  0.58240588     0.19600
C1306       C  0.40569546  0.04605868  0.61113461     0.24600
C1307       C  0.42741325  0.01602402  0.63193834    -0.23400
C1308       C  0.44139380  0.95988035  0.62083365     0.19500
F1309       F  0.46348144  0.93074654  0.63909118    -0.13300
F1310       F  0.44676060  0.87778776  0.58206269    -0.15700
F1311       F  0.39425815  0.60439010  0.61885170    -0.15700
F1312       F  0.37353765  0.04589824  0.56383017    -0.13300
C1313       C  0.94826095  0.92609199  0.88369612     0.24700
C1314       C  0.93839627  0.88727371  0.90957406    -0.23400
C1315       C  0.91078551  0.85281317  0.90444595     0.19600
C1316       C  0.89626911  0.85064332  0.87381081     0.24600
C1317       C  0.90632091  0.88854067  0.84794830    -0.23400
C1318       C  0.93238185  0.92677631  0.85335487     0.19500
F1319       F  0.94160083  0.96733743  0.83000753    -0.13300
F1320       F  0.97255118  0.96566349  0.88812407    -0.15700
F1321       F  0.87155831  0.81185892  0.86990623    -0.15700
F1322       F  0.89583485  0.82468158  0.92938594    -0.13300
C1323       C  0.88969606  0.02430733  0.68106168     0.24700
C1324       C  0.92175252  0.52898177  0.67764500    -0.23400
C1325       C  0.94079093  0.51645525  0.70470748     0.19600
C1326       C  0.92772908  0.49629403  0.73421053     0.24600
C1327       C  0.89570706  0.98848015  0.73737946    -0.23400
C1328       C  0.87682225  0.00274972  0.70982649     0.19500
F1329       F  0.84583859  0.99336098  0.70928328    -0.13300
F1330       F  0.87057944  0.03743438  0.65535995    -0.15700
F1331       F  0.94674481  0.48828773  0.76043478    -0.15700
F1332       F  0.97176310  0.52603671  0.70298507    -0.13300
C1333       C  0.88377879  0.83815940  0.69972880     0.24700
C1334       C  0.89944265  0.82427084  0.72924158    -0.23400
C1335       C  0.92974436  0.79974314  0.72747621     0.19600
C1336       C  0.94335519  0.78586600  0.69680414     0.24600
C1337       C  0.92708853  0.79798837  0.66739744    -0.23400
C1338       C  0.89756554  0.82619844  0.66944278     0.19500
F1339       F  0.88138213  0.84078298  0.64183896    -0.13300
F1340       F  0.85500555  0.86428934  0.69989901    -0.15700
F1341       F  0.97162385  0.75757507  0.69598034    -0.15700
F1342       F  0.94572237  0.78720703  0.75545981    -0.13300
C1343       C  0.78216950  0.60042992  0.56550560     0.24700
C1344       C  0.76652824  0.63728250  0.54184678    -0.23400
C1345       C  0.78478213  0.66424753  0.51693131     0.19600
C1346       C  0.81729478  0.66201478  0.51857236     0.24600
C1347       C  0.83235083  0.63173731  0.54459194    -0.23400
C1348       C  0.81442370  0.59930533  0.56739898     0.19500
F1349       F  0.82821926  0.56546820  0.59153883    -0.13300
F1350       F  0.76641958  0.56362920  0.58654464    -0.15700
F1351       F  0.83401179  0.69139037  0.99532250    -0.15700
F1352       F  0.77160935  0.69095696  0.99022768    -0.13300
C1353       C  0.67772406  0.59557615  0.63164820     0.24700
C1354       C  0.66542905  0.62588128  0.60394356    -0.23400
C1355       C  0.63664254  0.65681278  0.60693542     0.19600
C1356       C  0.62046883  0.65681131  0.63677976     0.24600
C1357       C  0.63252496  0.62525494  0.66451065    -0.23400
C1358       C  0.66240576  0.59803930  0.66168776     0.19500
F1359       F  0.67797230  0.57614648  0.68825880    -0.13300
F1360       F  0.70499200  0.56345102  0.62996044    -0.15700
F1361       F  0.59386552  0.69100173  0.63875209    -0.15700
F1362       F  0.62475294  0.69011825  0.58158039    -0.13300
C1363       C  0.75167260  0.90220244  0.76645827     0.24700
C1364       C  0.73922551  0.86824023  0.79244359    -0.23400
C1365       C  0.75934441  0.83548708  0.81341515     0.19600
C1366       C  0.79127647  0.84160297  0.81057174     0.24600
C1367       C  0.80404936  0.88309586  0.78757512    -0.23400
C1368       C  0.78379526  0.90870022  0.76365949     0.19500
F1369       F  0.79472708  0.93869161  0.73704532    -0.13300
F1370       F  0.73280351  0.93131322  0.74455152    -0.15700
F1371       F  0.80956069  0.80601620  0.83028675    -0.15700
F1372       F  0.74802174  0.79764111  0.83703038    -0.13300
C1373       C  0.67474481  0.56583180  0.92645558     0.24700
C1374       C  0.64932422  0.02582169  0.92397377    -0.23400
C1375       C  0.63669893  0.00053153  0.95270210     0.19600
C1376       C  0.64943780  0.51538498  0.98348190     0.24600
C1377       C  0.67569746  0.55385384  0.98592443    -0.23400
C1378       C  0.68795024  0.57958560  0.95700697     0.19500
F1379       F  0.71223159  0.61991870  0.95825810    -0.13300
F1380       F  0.68729946  0.59115525  0.89920552    -0.15700
F1381       F  0.63738823  0.98999277  0.51107243    -0.15700
F1382       F  0.61273776  0.95951151  0.95071970    -0.13300
C1383       C  0.67232943  0.78660936  0.98958019     0.24700
C1384       C  0.66331157  0.72522890  0.99758583    -0.23400
C1385       C  0.63927043  0.69717762  0.97855547     0.19600
C1386       C  0.62969910  0.72344784  0.94886800     0.24600
C1387       C  0.64260700  0.77993472  0.93836424    -0.23400
C1388       C  0.66216140  0.81366993  0.96037186     0.19500
F1389       F  0.67250420  0.87217147  0.95323125    -0.13300
F1390       F  0.69167354  0.82010412  0.00959244    -0.15700
F1391       F  0.60901217  0.69159676  0.92970285    -0.15700
F1392       F  0.62560925  0.64287800  0.98722569    -0.13300
loop_ 
_geom_bond_atom_site_label_1 
_geom_bond_atom_site_label_2 
_geom_bond_distance 
_geom_bond_site_symmetry_2 
_ccdc_geom_bond_type 
O1           C17   1.285       .  A
O1           Zn7   2.085       .  S
C2           O18   1.277       .  A
C2           O15   1.272       .  A
C2          C123   1.466       .  S
O3           C16   1.283       .  A
O3          Cd10   2.090       .  S
O4           C22   1.277       .  A
O4          Cd13   2.074       .  S
O5           C19   1.268       .  A
O5           Cd9   2.034       .  S
O6           C17   1.267       .  A
O6           Cd9   2.008       .  S
Zn7          O18   2.044       .  S
Zn7          O20   2.078       .  S
Zn7          O12   1.931       .  S
O8           C19   1.274       .  A
O8          Cd13   2.095       .  S
Cd9          O11   2.019       .  S
Cd9          O12   1.950       .  S
Cd10         O14   2.096       .  S
Cd10         O23   2.087       .  S
Cd10         O12   1.967       .  S
O11          C21   1.268       .  A
O12         Cd13   1.985       .  S
Cd13         O15   2.055       .  S
O14          C21   1.276       .  A
C16          O20   1.284       .  A
C16          C31   1.495       .  S
C17         C343   1.487       .  S
C19         C330   1.473       .  S
C21         C320   1.473       .  S
C22          O23   1.283       .  A
C22         C722   1.481       .  S
C24          C25   1.538       .  S
C24          C30   1.537       .  S
C24          C28   1.541       .  S
C24         C313   1.539       .  S
C25          H32   1.085       .  S
C25          C26   1.362       .  D
C26         C718   1.480       .  S
C26          C27   1.544       .  S
C27          C31   1.546       .  S
C27          C29   1.539       .  S
C27          H33   1.111       .  S
C28          H34   1.085       .  S
C28          C29   1.364       .  D
C29         C111   1.464       .  S
C30          H35   1.086       .  S
C30          C31   1.370       .  D
C36          C42   1.526       .  S
C36         C385   1.531       .  S
C36         C388   1.553       .  S
C36         C300   1.540       .  S
C37         C384   1.531       .  S
C37          H44   1.088       .  S
C37          C38   1.364       .  D
C38         C333   1.487       .  S
C38         C387   1.541       .  S
C39          C43   1.548       .  S
C39         C386   1.541       .  S
C39         C389   1.540       .  S
C39         H393   1.105       .  S
C40         C384   1.553       .  S
C40          H46   1.077       .  S
C40          C41   1.384       .  D
C41         C340   1.504       .  S
C41         C387   1.540       .  S
C42          H47   1.085       .  S
C42          C43   1.362       .  D
C43         C310   1.496       .  S
H45         C387   1.105       .  S
O48          C64   1.276       .  A
O48         Zn54   2.089       .  S
C49          O65   1.275       .  A
C49          O62   1.276       .  A
C49         C170   1.465       .  S
O50         C411   1.286       .  A
O50        Cd405   2.096       .  S
O51          C69   1.281   1_565  A
O51         Cd60   2.105   1_565  S
O52          C66   1.268       .  A
O52         Cd56   2.005       .  S
O53          C64   1.264       .  A
O53         Cd56   2.017       .  S
Zn54         O65   2.020   1_655  S
Zn54         O67   2.052       .  S
Zn54         O59   1.948       .  S
O55          C66   1.280       .  A
O55         Cd60   2.108       .  S
Cd56         O58   2.015       .  S
Cd56         O59   1.939       .  S
Cd57         O61   2.121       .  S
Cd57        O398   2.096       .  S
Cd57        O418   2.107       .  S
Cd57         O59   1.978       .  S
O58          C68   1.265       .  A
O59         Cd60   1.993       .  S
Cd60         O62   2.080   1_655  S
O61          C68   1.278       .  A
C63          O67   1.281       .  A
C63         O398   1.286       .  A
C63         C426   1.492   1_554  S
C64         C293   1.487       .  S
C66         C280   1.465       .  S
C68         C303   1.482       .  S
C69         O418   1.285       .  A
C69        C1117   1.495   1_544  S
O70         C417   1.285       .  A
O70        Cd405   2.107       .  S
C71          C72   1.537       .  S
C71          C77   1.544       .  S
C71          C75   1.542       .  S
C71         C270   1.544       .  S
C72          H79   1.086       .  S
C72          C73   1.369       .  D
C73        C1113   1.494       .  S
C73          C74   1.548       .  S
C74          C78   1.546       .  S
C74          C76   1.540   1_655  S
C74         H428   1.111       .  S
C75          H81   1.086   1_655  S
C75          C76   1.368   1_655  D
C76         C143   1.467       .  S
C77          H82   1.082       .  S
C77          C78   1.363       .  D
C78         C411   1.492       .  S
H80         C422   1.111   1_554  S
C83          C84   1.543       .  S
C83          C89   1.517       .  S
C83          C87   1.537       .  S
C83         C323   1.531       .  S
C84          H91   1.082       .  S
C84          C85   1.376       .  D
C85         C283   1.504       .  S
C85          C86   1.547       .  S
C86          C90   1.558       .  S
C86          C88   1.534       .  S
C86          H92   1.105       .  S
C87          H93   1.087       .  S
C87          C88   1.368       .  D
C88         C290   1.494       .  S
C89          H94   1.085       .  S
C89          C90   1.361       .  D
C90         C273   1.497       .  S
O95         C111   1.271       .  A
O95        Zn101   2.001       .  S
C96         O112   1.274       .  A
C96         O109   1.267       .  A
C96         C253   1.472       .  S
O97         C110   1.286       .  A
O97        Cd104   2.108       .  S
O98         C116   1.266       .  A
O98        Cd107   2.016       .  S
O99         C113   1.283       .  A
O99        Cd103   2.116       .  S
O100        C111   1.277       .  A
O100       Cd103   2.085       .  S
Zn101       O112   2.049       .  S
Zn101       O114   2.026       .  S
Zn101       O106   1.928       .  S
O102        C113   1.265       .  A
O102       Cd107   2.002       .  S
Cd103       O105   2.108   1_545  S
Cd103       O106   1.990       .  S
Cd104       O108   2.092       .  S
Cd104       O117   2.110       .  S
Cd104       O106   1.967       .  S
O105        C115   1.282       .  A
O106       Cd107   1.947       .  S
Cd107       O109   2.023       .  S
O108        C115   1.284   1_545  A
C110        O114   1.277       .  A
C110        C120   1.487       .  S
C113        C959   1.484       .  S
C115        C821   1.493       .  S
C116        O117   1.278       .  A
C116        C240   1.480       .  S
C118        C119   1.534       .  S
C118        C124   1.544       .  S
C118        C122   1.539       .  S
C118        C230   1.538       .  S
C119        H126   1.087       .  S
C119        C120   1.364       .  D
C120        C121   1.549       .  S
C121        C125   1.547       .  S
C121        C123   1.541       .  S
C121        H127   1.111       .  S
C122        H128   1.086       .  S
C122        C123   1.364       .  D
C124        H129   1.081       .  S
C124        C125   1.367       .  D
C125        C811   1.493       .  S
C130        C131   1.541       .  S
C130        C136   1.525   1_554  S
C130        C134   1.544       .  S
C130        C223   1.536       .  S
C131        H138   1.078       .  S
C131        C132   1.366       .  D
C132        C250   1.489       .  S
C132        C133   1.547       .  S
C133        C137   1.547   1_554  S
C133        C135   1.532       .  S
C133        H139   1.105       .  S
C134        H140   1.085       .  S
C134        C135   1.375       .  D
C135        C260   1.500       .  S
C136        H489   1.086       .  S
C136        C137   1.362       .  D
C137        C581   1.490       .  S
H141        C484   1.086       .  S
O142        C158   1.283       .  A
O142       Zn148   2.076       .  S
C143        O159   1.277       .  A
C143        O156   1.274       .  A
O144        C157   1.284       .  A
O144       Cd151   2.094       .  S
O145        C163   1.279       .  A
O145       Cd502   2.090   1_554  S
O146        C160   1.266       .  A
O146       Cd150   2.028       .  S
O147        C158   1.267       .  A
O147       Cd150   2.011       .  S
Zn148       O159   2.039       .  S
Zn148       O509   2.070       .  S
Zn148       O153   1.935       .  S
O149        C160   1.274       .  A
O149       Cd154   2.096       .  S
Cd150       O152   2.022       .  S
Cd150       O153   1.951       .  S
Cd151       O155   2.098       .  S
Cd151       O164   2.094       .  S
Cd151       O501   1.969   1_554  S
O152        C510   1.267       .  A
O153       Cd154   1.991       .  S
O153       Cd499   1.969       .  S
Cd154       O156   2.065       .  S
Cd154       O493   2.090       .  S
O155        C162   1.276       .  A
C157        O161   1.283       .  A
C157        C868   1.494       .  S
C158        C906   1.485       .  S
C160        C200   1.470       .  S
O161       Zn496   2.070   1_554  S
C162        O500   1.267   1_554  A
C162        C220   1.473       .  S
C163        O164   1.284       .  A
C163        C167   1.487       .  S
C165        C166   1.542       .  S
C165        C171   1.545       .  S
C165        C169   1.533       .  S
C165        C193   1.538       .  S
C166        H173   1.084       .  S
C166        C167   1.366       .  D
C167        C168   1.546       .  S
C168        C172   1.548       .  S
C168        C170   1.538       .  S
C168        H174   1.111       .  S
C169        H175   1.087       .  S
C169        C170   1.362       .  D
C171        H176   1.085       .  S
C171        C172   1.369       .  D
C172        C853   1.493       .  S
C177        C178   1.543       .  S
C177        C183   1.532       .  S
C177        C181   1.540       .  S
C177        C243   1.534       .  S
C178        H185   1.084       .  S
C178        C179   1.367       .  D
C179        C203   1.483       .  S
C179        C180   1.541       .  S
C180        C184   1.537       .  S
C180        C182   1.535       .  S
C180        H186   1.107       .  S
C181        H187   1.085       .  S
C181        C182   1.377       .  D
C182        C213   1.498       .  S
C183        H188   1.084       .  S
C183        C184   1.357       .  D
C184        C190   1.472       .  S
C189        C190   1.399       .  A
C189        C194   1.398       .  A
C189        F196   1.358       .  S
C190        C191   1.397       .  A
C191        C192   1.400       .  A
C191        F198   1.358       .  S
C192        C193   1.420       .  A
C192        F197   1.356       .  S
C193        C194   1.416       .  A
C194        F195   1.357       .  S
C199        C200   1.400       .  A
C199        C204   1.390       .  A
C199        F206   1.358       .  S
C200        C201   1.409       .  A
C201        C202   1.403       .  A
C201        F208   1.358       .  S
C202        C203   1.403       .  A
C202        F207   1.357       .  S
C203        C204   1.412       .  A
C204        F205   1.357       .  S
C209        C210   1.402   1_545  A
C209        C214   1.399       .  A
C209        F216   1.358       .  S
C210        C854   1.485       .  S
C210        C907   1.415       .  A
C211        C906   1.415       .  A
C211        C908   1.394       .  A
C211        F218   1.357       .  S
C212        C213   1.403   1_565  A
C212        C907   1.393       .  A
C212        F217   1.358       .  S
C213        C214   1.417       .  A
C214        F215   1.351       .  S
C219        C220   1.400       .  A
C219        C224   1.399       .  A
C219        F226   1.358       .  S
C220        C221   1.403       .  A
C221        C222   1.395       .  A
C221        F576   1.358   1_554  S
C222        C223   1.414       .  A
C222        F575   1.358   1_554  S
C223        C224   1.421       .  A
C224        F225   1.353       .  S
F227        C570   1.358       .  S
F228        C569   1.358       .  S
C229        C230   1.418       .  A
C229        C234   1.403       .  A
C229        F236   1.357       .  S
C230        C231   1.416       .  A
C231        C232   1.394       .  A
C231        F238   1.355       .  S
C232        C233   1.406       .  A
C232        F237   1.358       .  S
C233        C485   1.490       .  S
C233        C234   1.402       .  A
C234        F583   1.357       .  S
F235        C582   1.357       .  S
C239        C240   1.402       .  A
C239        C244   1.400       .  A
C239        F246   1.358       .  S
C240        C241   1.409       .  A
C241        C242   1.395       .  A
C241        F248   1.359       .  S
C242        C243   1.411       .  A
C242        F247   1.357       .  S
C243        C244   1.418       .  A
C244        F245   1.356       .  S
C249        C250   1.403       .  A
C249        C254   1.406       .  A
C249        F256   1.357       .  S
C250        C251   1.415       .  A
C251        C252   1.388       .  A
C251        F258   1.357       .  S
C252        C253   1.399       .  A
C252        F257   1.359       .  S
C253        C254   1.411       .  A
C254        F255   1.357       .  S
C259        C260   1.418       .  A
C259        C264   1.396       .  A
C259        F266   1.351       .  S
C260        C261   1.405       .  A
C261        C262   1.394       .  A
C261        F268   1.358       .  S
C262        C263   1.415       .  A
C262        F963   1.359       .  S
C263        C809   1.483       .  S
C263        C264   1.400       .  A
C264        F265   1.358       .  S
F267        C958   1.359       .  S
C269        C270   1.418       .  A
C269        C274   1.409       .  A
C269        F276   1.357       .  S
C270        C271   1.416       .  A
C271        C272   1.392       .  A
C271        F278   1.356       .  S
C272        C273   1.408       .  A
C272        F277   1.359       .  S
C273        C274   1.406       .  A
C274        F275   1.356       .  S
C279        C284   1.386       .  A
C279        C976   1.398       .  A
C279        F286   1.360       .  S
C280        C281   1.399       .  A
C280        C975   1.398       .  A
C281        C282   1.405   1_545  A
C281        F288   1.357       .  S
C282        C979   1.417       .  A
C282        F287   1.355       .  S
C283        C284   1.418       .  A
C283        C978   1.417       .  A
C284        F285   1.355       .  S
C289        C290   1.410       .  A
C289        C294   1.391       .  A
C289        F296   1.357       .  S
C290        C291   1.407       .  A
C291        C292   1.409       .  A
C291        F298   1.357       .  S
C292        C293   1.411       .  A
C292        F297   1.357       .  S
C293        C294   1.408       .  A
C294        F295   1.359       .  S
C299        C300   1.416       .  A
C299        C304   1.395       .  A
C299        F306   1.358       .  S
C300        C301   1.419       .  A
C301        C302   1.406       .  A
C301        F656   1.355   1_554  S
C302        C303   1.402       .  A
C302        F655   1.357   1_554  S
C303        C304   1.405       .  A
C304        F305   1.359       .  S
F307        C650   1.357       .  S
F308        C649   1.355       .  S
C309        C310   1.408       .  A
C309        C314   1.394       .  A
C309        F316   1.358       .  S
C310        C311   1.407       .  A
C311        C312   1.405       .  A
C311        F318   1.357       .  S
C312        C313   1.417       .  A
C312        F317   1.356       .  S
C313        C314   1.415       .  A
C314        F315   1.357       .  S
C319        C320   1.402       .  A
C319        C324   1.401       .  A
C319        F326   1.358       .  S
C320        C321   1.403       .  A
C321        C322   1.392       .  A
C321        F328   1.359       .  S
C322        C323   1.413       .  A
C322        F327   1.357       .  S
C323        C324   1.418       .  A
C324        F325   1.355       .  S
C329        C334   1.392       .  A
C329       C1026   1.401       .  A
C329        F336   1.358       .  S
C330        C331   1.410       .  A
C330       C1025   1.401       .  A
C331       C1028   1.404       .  A
C331        F338   1.358       .  S
C332        C333   1.403       .  A
C332       C1027   1.404       .  A
C332       F1381   1.357   1_545  S
C333        C334   1.414       .  A
C334        F335   1.358       .  S
F337       C1376   1.357   1_554  S
C339        C340   1.405       .  A
C339        C344   1.397       .  A
C339        F346   1.358       .  S
C340        C341   1.419       .  A
C341        C342   1.399       .  A
C341        F348   1.351       .  S
C342        C343   1.400       .  A
C342        F347   1.358       .  S
C343        C344   1.415       .  A
C344        F345   1.358       .  S
O349        C365   1.285       .  A
O349       Zn355   2.085       .  S
C350        O366   1.277       .  A
C350        O363   1.272       .  A
C350        C471   1.467       .  S
O351        C364   1.283       .  A
O351       Cd358   2.090       .  S
O352        C370   1.277       .  A
O352       Cd361   2.073       .  S
O353        C367   1.268       .  A
O353       Cd357   2.034       .  S
O354        C365   1.267       .  A
O354       Cd357   2.008       .  S
Zn355       O366   2.045       .  S
Zn355       O368   2.078       .  S
Zn355       O360   1.931       .  S
O356        C367   1.274       .  A
O356       Cd361   2.095       .  S
Cd357       O359   2.019       .  S
Cd357       O360   1.950       .  S
Cd358       O362   2.096       .  S
Cd358       O371   2.087       .  S
Cd358       O360   1.967       .  S
O359        C369   1.268       .  A
O360       Cd361   1.985       .  S
Cd361       O363   2.055       .  S
O362        C369   1.276       .  A
C364        O368   1.284       .  A
C364        C379   1.495       .  S
C365        C691   1.487       .  S
C367        C678   1.473       .  S
C369        C668   1.474       .  S
C370        O371   1.283       .  A
C370       C1070   1.480       .  S
C372        C373   1.538       .  S
C372        C378   1.537       .  S
C372        C376   1.541       .  S
C372        C661   1.539       .  S
C373        H380   1.085       .  S
C373        C374   1.362       .  D
C374       C1066   1.479       .  S
C374        C375   1.544       .  S
C375        C379   1.546       .  S
C375        C377   1.539       .  S
C375        H381   1.111       .  S
C376        H382   1.085       .  S
C376        C377   1.365       .  D
C377        C459   1.464       .  S
C378        H383   1.086       .  S
C378        C379   1.370       .  D
C384        C390   1.526       .  S
C384        C648   1.540       .  S
C385        H392   1.088       .  S
C385        C386   1.364       .  D
C386        C681   1.487   1_554  S
C387        C391   1.548       .  S
C388        H394   1.077       .  S
C388        C389   1.384       .  D
C389        C688   1.504   1_554  S
C390        H395   1.085       .  S
C390        C391   1.362       .  D
C391        C658   1.496       .  S
O396        C412   1.276       .  A
O396       Zn402   2.089       .  S
C397        O413   1.275       .  A
C397        O410   1.276       .  A
C397        C518   1.465       .  S
O399        C417   1.281   1_565  A
O399       Cd408   2.105   1_565  S
O400        C414   1.268       .  A
O400       Cd404   2.005       .  S
O401        C412   1.264       .  A
O401       Cd404   2.016       .  S
Zn402       O413   2.020   1_655  S
Zn402       O415   2.052       .  S
Zn402       O407   1.948       .  S
O403        C414   1.280       .  A
O403       Cd408   2.108       .  S
Cd404       O406   2.015       .  S
Cd404       O407   1.939       .  S
Cd405       O409   2.122       .  S
Cd405       O407   1.978       .  S
O406        C416   1.265       .  A
O407       Cd408   1.993       .  S
Cd408       O410   2.079   1_655  S
O409        C416   1.278       .  A
C411        O415   1.281       .  A
C412        C641   1.487       .  S
C414        C628   1.465       .  S
C416        C651   1.482       .  S
C417        C769   1.494   1_545  S
C419        C420   1.538       .  S
C419        C425   1.543       .  S
C419        C423   1.542       .  S
C419        C618   1.544       .  S
C420        H427   1.086       .  S
C420        C421   1.369       .  D
C421        C765   1.494   1_556  S
C421        C422   1.548       .  S
C422        C426   1.546       .  S
C422        C424   1.540   1_655  S
C423        H429   1.086   1_655  S
C423        C424   1.368   1_655  D
C424        C491   1.468       .  S
C425        H430   1.082       .  S
C425        C426   1.363       .  D
C431        C432   1.543       .  S
C431        C437   1.517       .  S
C431        C435   1.537       .  S
C431        C671   1.531       .  S
C432        H439   1.082       .  S
C432        C433   1.376       .  D
C433        C631   1.504       .  S
C433        C434   1.547       .  S
C434        C438   1.558       .  S
C434        C436   1.534       .  S
C434        H440   1.105       .  S
C435        H441   1.087       .  S
C435        C436   1.368       .  D
C436        C638   1.494       .  S
C437        H442   1.085       .  S
C437        C438   1.361       .  D
C438        C621   1.497       .  S
O443        C459   1.271       .  A
O443       Zn449   2.001       .  S
C444        O460   1.274       .  A
C444        O457   1.267       .  A
C444        C601   1.472       .  S
O445        C458   1.286       .  A
O445       Cd452   2.108       .  S
O446        C464   1.266       .  A
O446       Cd455   2.015       .  S
O447        C461   1.283       .  A
O447       Cd451   2.116       .  S
O448        C459   1.277       .  A
O448       Cd451   2.085       .  S
Zn449       O460   2.049       .  S
Zn449       O462   2.027       .  S
Zn449       O454   1.928       .  S
O450        C461   1.265       .  A
O450       Cd455   2.002       .  S
Cd451       O453   2.108   1_545  S
Cd451       O454   1.990       .  S
Cd452       O456   2.092       .  S
Cd452       O465   2.110       .  S
Cd452       O454   1.968       .  S
O453        C463   1.282       .  A
O454       Cd455   1.947       .  S
Cd455       O457   2.023       .  S
O456        C463   1.284   1_545  A
C458        O462   1.277       .  A
C458        C468   1.487       .  S
C461       C1307   1.484       .  S
C463       C1169   1.493       .  S
C464        O465   1.278       .  A
C464        C588   1.480       .  S
C466        C467   1.534       .  S
C466        C472   1.544       .  S
C466        C470   1.539       .  S
C466        C578   1.538       .  S
C467        H474   1.087       .  S
C467        C468   1.364       .  D
C468        C469   1.549       .  S
C469        C473   1.547       .  S
C469        C471   1.542       .  S
C469        H475   1.111       .  S
C470        H476   1.086       .  S
C470        C471   1.364       .  D
C472        H477   1.081       .  S
C472        C473   1.367       .  D
C473       C1159   1.493       .  S
C478        C479   1.541       .  S
C478        C484   1.525       .  S
C478        C482   1.544       .  S
C478        C571   1.536       .  S
C479        H486   1.078       .  S
C479        C480   1.366       .  D
C480        C598   1.489       .  S
C480        C481   1.547       .  S
C481        C485   1.547       .  S
C481        C483   1.532       .  S
C481        H487   1.105       .  S
C482        H488   1.085       .  S
C482        C483   1.375       .  D
C483        C608   1.500       .  S
C484        C485   1.362       .  D
O490        C506   1.283       .  A
O490       Zn496   2.076       .  S
C491        O507   1.277       .  A
C491        O504   1.274       .  A
O492        C505   1.284       .  A
O492       Cd499   2.094       .  S
O493        C511   1.279       .  A
O494        C508   1.266       .  A
O494       Cd498   2.028       .  S
O495        C506   1.267       .  A
O495       Cd498   2.010       .  S
Zn496       O507   2.039       .  S
Zn496       O501   1.935       .  S
O497        C508   1.274       .  A
O497       Cd502   2.095       .  S
Cd498       O500   2.022       .  S
Cd498       O501   1.951       .  S
Cd499       O503   2.097       .  S
Cd499       O512   2.094       .  S
O501       Cd502   1.991       .  S
Cd502       O504   2.065       .  S
O503        C510   1.276       .  A
C505        O509   1.283       .  A
C505       C1216   1.494       .  S
C506       C1254   1.485       .  S
C508        C548   1.469       .  S
C510        C568   1.473       .  S
C511        O512   1.284       .  A
C511        C515   1.487       .  S
C513        C514   1.542       .  S
C513        C519   1.545       .  S
C513        C517   1.533       .  S
C513        C541   1.538       .  S
C514        H521   1.084       .  S
C514        C515   1.366       .  D
C515        C516   1.546       .  S
C516        C520   1.548       .  S
C516        C518   1.538       .  S
C516        H522   1.111       .  S
C517        H523   1.087       .  S
C517        C518   1.362       .  D
C519        H524   1.085       .  S
C519        C520   1.369       .  D
C520       C1201   1.493       .  S
C525        C526   1.543       .  S
C525        C531   1.532       .  S
C525        C529   1.540       .  S
C525        C591   1.534       .  S
C526        H533   1.084       .  S
C526        C527   1.367       .  D
C527        C551   1.483       .  S
C527        C528   1.541       .  S
C528        C532   1.537       .  S
C528        C530   1.535       .  S
C528        H534   1.107       .  S
C529        H535   1.085       .  S
C529        C530   1.377       .  D
C530        C561   1.498       .  S
C531        H536   1.084       .  S
C531        C532   1.357       .  D
C532        C538   1.472       .  S
C537        C538   1.399       .  A
C537        C542   1.398       .  A
C537        F544   1.358       .  S
C538        C539   1.397       .  A
C539        C540   1.400       .  A
C539        F546   1.358       .  S
C540        C541   1.420       .  A
C540        F545   1.356       .  S
C541        C542   1.416       .  A
C542        F543   1.357       .  S
C547        C548   1.400       .  A
C547        C552   1.390       .  A
C547        F554   1.358       .  S
C548        C549   1.409       .  A
C549        C550   1.403       .  A
C549        F556   1.358       .  S
C550        C551   1.403       .  A
C550        F555   1.357       .  S
C551        C552   1.412       .  A
C552        F553   1.357       .  S
C557        C558   1.402   1_545  A
C557        C562   1.399       .  A
C557        F564   1.358       .  S
C558       C1202   1.485       .  S
C558       C1255   1.415       .  A
C559       C1254   1.415       .  A
C559       C1256   1.394       .  A
C559        F566   1.357       .  S
C560       C1255   1.393       .  A
C560        C561   1.403   1_565  A
C560        F565   1.358       .  S
C561        C562   1.417       .  A
C562        F563   1.351       .  S
C567        C568   1.400       .  A
C567        C572   1.399       .  A
C567        F574   1.358       .  S
C568        C569   1.403       .  A
C569        C570   1.395       .  A
C570        C571   1.414       .  A
C571        C572   1.421       .  A
C572        F573   1.353       .  S
C577        C578   1.418       .  A
C577        C582   1.403       .  A
C577        F584   1.357       .  S
C578        C579   1.416       .  A
C579        C580   1.394       .  A
C579        F586   1.355       .  S
C580        C581   1.406       .  A
C580        F585   1.358       .  S
C581        C582   1.402       .  A
C587        C588   1.402       .  A
C587        C592   1.400       .  A
C587        F594   1.358       .  S
C588        C589   1.409       .  A
C589        C590   1.395       .  A
C589        F596   1.359       .  S
C590        C591   1.411       .  A
C590        F595   1.357       .  S
C591        C592   1.418       .  A
C592        F593   1.356       .  S
C597        C598   1.403       .  A
C597        C602   1.406       .  A
C597        F604   1.357       .  S
C598        C599   1.415       .  A
C599        C600   1.388       .  A
C599        F606   1.357       .  S
C600        C601   1.399       .  A
C600        F605   1.359       .  S
C601        C602   1.411       .  A
C602        F603   1.358       .  S
C607        C608   1.418       .  A
C607        C612   1.396       .  A
C607        F614   1.351       .  S
C608        C609   1.405       .  A
C609        C610   1.394       .  A
C609        F616   1.358       .  S
C610        C611   1.415       .  A
C610       F1311   1.359       .  S
C611       C1157   1.483       .  S
C611        C612   1.400       .  A
C612        F613   1.358       .  S
F615       C1306   1.359       .  S
C617        C618   1.418       .  A
C617        C622   1.409       .  A
C617        F624   1.357       .  S
C618        C619   1.416       .  A
C619        C620   1.392       .  A
C619        F626   1.356       .  S
C620        C621   1.408       .  A
C620        F625   1.359       .  S
C621        C622   1.406       .  A
C622        F623   1.356       .  S
C627       C1324   1.398       .  A
C627        C632   1.386       .  A
C627        F634   1.360       .  S
C628       C1323   1.398       .  A
C628        C629   1.399       .  A
C629        C630   1.405   1_545  A
C629        F636   1.357       .  S
C630       C1327   1.417       .  A
C630        F635   1.355       .  S
C631       C1326   1.417       .  A
C631        C632   1.418       .  A
C632        F633   1.355       .  S
C637        C638   1.410       .  A
C637        C642   1.391       .  A
C637        F644   1.357       .  S
C638        C639   1.407       .  A
C639        C640   1.409       .  A
C639        F646   1.357       .  S
C640        C641   1.411       .  A
C640        F645   1.357       .  S
C641        C642   1.408       .  A
C642        F643   1.359       .  S
C647        C648   1.416       .  A
C647        C652   1.395       .  A
C647        F654   1.358       .  S
C648        C649   1.419       .  A
C649        C650   1.406       .  A
C650        C651   1.402       .  A
C651        C652   1.405       .  A
C652        F653   1.359       .  S
C657        C658   1.407       .  A
C657        C662   1.394       .  A
C657        F664   1.358       .  S
C658        C659   1.407       .  A
C659        C660   1.405       .  A
C659        F666   1.357       .  S
C660        C661   1.417       .  A
C660        F665   1.356       .  S
C661        C662   1.415       .  A
C662        F663   1.357       .  S
C667        C668   1.402       .  A
C667        C672   1.401       .  A
C667        F674   1.358       .  S
C668        C669   1.403       .  A
C669        C670   1.392       .  A
C669        F676   1.359       .  S
C670        C671   1.413       .  A
C670        F675   1.357       .  S
C671        C672   1.418       .  A
C672        F673   1.355       .  S
C677       C1374   1.401       .  A
C677        C682   1.392       .  A
C677        F684   1.358       .  S
C678       C1373   1.401       .  A
C678        C679   1.410       .  A
C679       C1376   1.404       .  A
C679        F686   1.358       .  S
C680       C1375   1.404       .  A
C680        C681   1.403       .  A
C680       F1033   1.357   1_546  S
C681        C682   1.414       .  A
C682        F683   1.358       .  S
F685       C1028   1.357       .  S
C687        C688   1.405       .  A
C687        C692   1.397       .  A
C687        F694   1.358   1_556  S
C688        C689   1.419       .  A
C689        C690   1.399       .  A
C689        F696   1.351       .  S
C690        C691   1.400       .  A
C690        F695   1.358       .  S
C691        C692   1.415       .  A
C692        F693   1.358       .  S
O697        C713   1.284       .  A
O697       Zn703   2.084       .  S
C698        O714   1.277       .  A
C698        O711   1.272       .  A
C698        C819   1.467       .  S
O699        C712   1.283       .  A
O699       Cd706   2.091       .  S
O700        C718   1.277       .  A
O700       Cd709   2.072   1_545  S
O701        C715   1.268   1_565  A
O701       Cd705   2.035       .  S
O702        C713   1.267       .  A
O702       Cd705   2.006       .  S
Zn703       O714   2.044       .  S
Zn703       O716   2.077       .  S
Zn703       O708   1.931       .  S
O704        C715   1.274   1_565  A
O704       Cd709   2.095       .  S
Cd705       O707   2.018       .  S
Cd705       O708   1.950       .  S
Cd706       O710   2.098       .  S
Cd706       O719   2.086       .  S
Cd706       O708   1.967       .  S
O707        C717   1.268       .  A
O708       Cd709   1.985       .  S
Cd709       O711   2.055       .  S
O710        C717   1.276       .  A
C712        O716   1.284       .  A
C712        C727   1.495       .  S
C713       C1039   1.486       .  S
C715       C1026   1.473       .  S
C717       C1016   1.474       .  S
C718        O719   1.283   1_545  A
C720        C721   1.539       .  S
C720        C726   1.537       .  S
C720        C724   1.541       .  S
C720       C1009   1.539       .  S
C721        H728   1.085       .  S
C721        C722   1.363       .  D
C722        C723   1.544       .  S
C723        C727   1.546       .  S
C723        C725   1.539       .  S
C723        H729   1.111       .  S
C724        H730   1.085       .  S
C724        C725   1.365       .  D
C725        C807   1.464       .  S
C726        H731   1.086       .  S
C726        C727   1.370       .  D
C732       C1081   1.531       .  S
C732        C738   1.526       .  S
C732       C1084   1.553       .  S
C732        C996   1.540       .  S
C733       C1080   1.531       .  S
C733        H740   1.088       .  S
C733        C734   1.364       .  D
C734       C1029   1.488       .  S
C734       C1083   1.541       .  S
C735       C1082   1.541       .  S
C735        C739   1.548       .  S
C735       C1085   1.540       .  S
C735       H1089   1.105       .  S
C736       C1080   1.554       .  S
C736        H742   1.077       .  S
C736        C737   1.384       .  D
C737       C1036   1.504       .  S
C737       C1083   1.540       .  S
C738        H743   1.085       .  S
C738        C739   1.362       .  D
C739       C1006   1.496       .  S
H741       C1083   1.105       .  S
O744        C760   1.277       .  A
O744       Zn750   2.087       .  S
C745        O761   1.275       .  A
C745        O758   1.276       .  A
C745        C866   1.466       .  S
O746       C1107   1.286       .  A
O746      Cd1101   2.095       .  S
O747        C765   1.281       .  A
O747       Cd756   2.104       .  S
O748        C762   1.268       .  A
O748       Cd752   2.005       .  S
O749        C760   1.264       .  A
O749       Cd752   2.018       .  S
Zn750       O761   2.020   1_655  S
Zn750       O763   2.050       .  S
Zn750       O755   1.947       .  S
O751        C762   1.280       .  A
O751       Cd756   2.108       .  S
Cd752       O754   2.017       .  S
Cd752       O755   1.940       .  S
Cd753      O1094   2.095       .  S
Cd753       O757   2.120       .  S
Cd753      O1114   2.107       .  S
Cd753       O755   1.979       .  S
O754        C764   1.265       .  A
O755       Cd756   1.993       .  S
Cd756       O758   2.080   1_655  S
O757        C764   1.278       .  A
C759       O1094   1.286       .  A
C759        O763   1.281       .  A
C759       C1122   1.491   1_554  S
C760        C989   1.486       .  S
C762        C976   1.464       .  S
C764        C999   1.482       .  S
C765       O1114   1.285       .  A
O766       C1113   1.285       .  A
O766      Cd1101   2.107       .  S
C767        C768   1.537       .  S
C767        C773   1.543       .  S
C767        C771   1.542       .  S
C767        C966   1.544       .  S
C768        H775   1.086       .  S
C768        C769   1.369       .  D
C769        C770   1.549       .  S
C770        C774   1.546       .  S
C770        C772   1.540   1_655  S
C770       H1124   1.111       .  S
C771        H777   1.086   1_655  S
C771        C772   1.367   1_655  D
C772        C839   1.467       .  S
C773        H778   1.082       .  S
C773        C774   1.363       .  D
C774       C1107   1.491       .  S
H776       C1118   1.111       .  S
C779        C780   1.543       .  S
C779        C785   1.516       .  S
C779        C783   1.537       .  S
C779       C1019   1.530       .  S
C780        H787   1.082       .  S
C780        C781   1.376       .  D
C781        C979   1.505       .  S
C781        C782   1.548       .  S
C782        C786   1.558       .  S
C782        C784   1.534       .  S
C782        H788   1.105       .  S
C783        H789   1.087       .  S
C783        C784   1.367       .  D
C784        C986   1.493       .  S
C785        H790   1.085       .  S
C785        C786   1.361       .  D
C786        C969   1.497       .  S
O791        C807   1.271       .  A
O791       Zn797   2.001       .  S
C792        O808   1.273       .  A
C792        O805   1.267       .  A
C792        C949   1.471       .  S
O793        C806   1.286       .  A
O793       Cd800   2.107       .  S
O794        C812   1.266       .  A
O794       Cd803   2.016       .  S
O795        C809   1.282       .  A
O795       Cd799   2.113       .  S
O796        C807   1.277       .  A
O796       Cd799   2.085       .  S
Zn797       O808   2.047       .  S
Zn797       O810   2.025       .  S
Zn797       O802   1.928       .  S
O798        C809   1.265       .  A
O798       Cd803   2.002       .  S
Cd799       O801   2.108       .  S
Cd799       O802   1.990       .  S
Cd800       O804   2.091       .  S
Cd800       O813   2.110       .  S
Cd800       O802   1.967       .  S
O801        C811   1.282       .  A
O802       Cd803   1.947       .  S
Cd803       O805   2.024       .  S
O804        C811   1.284       .  A
C806        O810   1.277       .  A
C806        C816   1.486       .  S
C812        O813   1.278       .  A
C812        C936   1.481       .  S
C814        C815   1.533       .  S
C814        C820   1.544       .  S
C814        C818   1.539       .  S
C814        C926   1.537       .  S
C815        H822   1.087       .  S
C815        C816   1.363       .  D
C816        C817   1.548       .  S
C817        C821   1.547       .  S
C817        C819   1.542       .  S
C817        H823   1.111       .  S
C818        H824   1.086       .  S
C818        C819   1.364       .  D
C820        H825   1.081       .  S
C820        C821   1.367       .  D
C826        C827   1.541       .  S
C826        C832   1.525   1_554  S
C826        C830   1.545       .  S
C826        C919   1.537       .  S
C827        H834   1.078       .  S
C827        C828   1.366       .  D
C828        C946   1.489       .  S
C828        C829   1.546       .  S
C829        C833   1.546   1_554  S
C829        C831   1.533       .  S
C829        H835   1.105       .  S
C830        H836   1.085       .  S
C830        C831   1.375       .  D
C831        C956   1.501       .  S
C832       H1185   1.086       .  S
C832        C833   1.362       .  D
C833       C1277   1.489       .  S
H837       C1180   1.086       .  S
O838        C854   1.283       .  A
O838       Zn844   2.076       .  S
C839        O855   1.276       .  A
C839        O852   1.274       .  A
O840        C853   1.284   1_565  A
O840       Cd847   2.095       .  S
O841        C859   1.279       .  A
O841      Cd1198   2.089   1_554  S
O842        C856   1.266       .  A
O842       Cd846   2.028       .  S
O843        C854   1.267       .  A
O843       Cd846   2.010       .  S
Zn844       O855   2.038       .  S
Zn844      O1205   2.068   1_565  S
Zn844       O849   1.935       .  S
O845        C856   1.274       .  A
O845       Cd850   2.096       .  S
Cd846       O848   2.021       .  S
Cd846       O849   1.950       .  S
Cd847       O851   2.098       .  S
Cd847       O860   2.094       .  S
Cd847      O1197   1.969   1_554  S
O848       C1206   1.267       .  A
O849      Cd1195   1.969       .  S
O849       Cd850   1.991       .  S
Cd850      O1189   2.089       .  S
Cd850       O852   2.065       .  S
O851        C858   1.276       .  A
C853        O857   1.283       .  A
C856        C896   1.470       .  S
O857      Zn1192   2.068   1_544  S
C858       O1196   1.267   1_554  A
C858        C916   1.473       .  S
C859        O860   1.284       .  A
C859        C863   1.487       .  S
C861        C862   1.542       .  S
C861        C867   1.545       .  S
C861        C865   1.533       .  S
C861        C889   1.538       .  S
C862        H869   1.084       .  S
C862        C863   1.365       .  D
C863        C864   1.546       .  S
C864        C868   1.548       .  S
C864        C866   1.538       .  S
C864        H870   1.111       .  S
C865        H871   1.087       .  S
C865        C866   1.362       .  D
C867        H872   1.085       .  S
C867        C868   1.369       .  D
C873        C874   1.543       .  S
C873        C879   1.533       .  S
C873        C877   1.540       .  S
C873        C939   1.534       .  S
C874        H881   1.084       .  S
C874        C875   1.367       .  D
C875        C899   1.483       .  S
C875        C876   1.541       .  S
C876        C880   1.537       .  S
C876        C878   1.535       .  S
C876        H882   1.107       .  S
C877        H883   1.085       .  S
C877        C878   1.376       .  D
C878        C909   1.498       .  S
C879        H884   1.084       .  S
C879        C880   1.357       .  D
C880        C886   1.472       .  S
C885        C886   1.399       .  A
C885        C890   1.398       .  A
C885        F892   1.358       .  S
C886        C887   1.397       .  A
C887        C888   1.400       .  A
C887        F894   1.358       .  S
C888        C889   1.420       .  A
C888        F893   1.356       .  S
C889        C890   1.416       .  A
C890        F891   1.357       .  S
C895        C896   1.400       .  A
C895        C900   1.390       .  A
C895        F902   1.358       .  S
C896        C897   1.409       .  A
C897        C898   1.403       .  A
C897        F904   1.358       .  S
C898        C899   1.403       .  A
C898        F903   1.357       .  S
C899        C900   1.412       .  A
C900        F901   1.357       .  S
C905        C906   1.402       .  A
C905        C910   1.399       .  A
C905        F912   1.358       .  S
C907        F914   1.357       .  S
C908        C909   1.403       .  A
C908        F913   1.358       .  S
C909        C910   1.417       .  A
C910        F911   1.351       .  S
C915        C916   1.400       .  A
C915        C920   1.400       .  A
C915        F922   1.358       .  S
C916        C917   1.402       .  A
C917        C918   1.395       .  A
C917       F1272   1.358   1_554  S
C918        C919   1.414       .  A
C918       F1271   1.358   1_554  S
C919        C920   1.421       .  A
C920        F921   1.353       .  S
F923       C1266   1.358       .  S
F924       C1265   1.358       .  S
C925        C926   1.418       .  A
C925        C930   1.403       .  A
C925        F932   1.357       .  S
C926        C927   1.416       .  A
C927        C928   1.394       .  A
C927        F934   1.355       .  S
C928        C929   1.406       .  A
C928        F933   1.358       .  S
C929       C1181   1.489       .  S
C929        C930   1.402       .  A
C930       F1279   1.357       .  S
F931       C1278   1.357       .  S
C935        C936   1.402       .  A
C935        C940   1.401       .  A
C935        F942   1.358       .  S
C936        C937   1.408       .  A
C937        C938   1.395       .  A
C937        F944   1.359       .  S
C938        C939   1.411       .  A
C938        F943   1.357       .  S
C939        C940   1.418       .  A
C940        F941   1.356       .  S
C945        C946   1.403       .  A
C945        C950   1.405       .  A
C945        F952   1.357       .  S
C946        C947   1.415       .  A
C947        C948   1.388       .  A
C947        F954   1.357       .  S
C948        C949   1.399       .  A
C948        F953   1.359       .  S
C949        C950   1.411       .  A
C950        F951   1.357       .  S
C955        C956   1.419       .  A
C955        C960   1.396       .  A
C955        F962   1.351       .  S
C956        C957   1.405   1_565  A
C957        C958   1.395       .  A
C957        F964   1.358       .  S
C958        C959   1.415       .  A
C959        C960   1.400   1_545  A
C960        F961   1.358       .  S
C965        C966   1.418       .  A
C965        C970   1.409       .  A
C965        F972   1.357       .  S
C966        C967   1.415       .  A
C967        C968   1.392       .  A
C967        F974   1.356       .  S
C968        C969   1.408       .  A
C968        F973   1.359       .  S
C969        C970   1.406       .  A
C970        F971   1.356       .  S
C975        C980   1.386       .  A
C975        F982   1.360       .  S
C976        C977   1.399       .  A
C977        C978   1.405       .  A
C977        F984   1.357       .  S
C978        F983   1.355       .  S
C979        C980   1.418   1_565  A
C980        F981   1.355   1_545  S
C985        C986   1.410       .  A
C985        C990   1.391       .  A
C985        F992   1.357       .  S
C986        C987   1.407       .  A
C987        C988   1.409       .  A
C987        F994   1.357       .  S
C988        C989   1.411       .  A
C988        F993   1.357       .  S
C989        C990   1.407       .  A
C990        F991   1.359       .  S
C995        C996   1.416       .  A
C995       C1000   1.395       .  A
C995       F1002   1.358       .  S
C996        C997   1.419       .  A
C997        C998   1.406       .  A
C997       F1352   1.355   1_554  S
C998        C999   1.402       .  A
C998       F1351   1.357   1_554  S
C999       C1000   1.405       .  A
C1000      F1001   1.359       .  S
F1003      C1346   1.357       .  S
F1004      C1345   1.355       .  S
C1005      C1006   1.407       .  A
C1005      C1010   1.394       .  A
C1005      F1012   1.358       .  S
C1006      C1007   1.407       .  A
C1007      C1008   1.405       .  A
C1007      F1014   1.357       .  S
C1008      C1009   1.417       .  A
C1008      F1013   1.357       .  S
C1009      C1010   1.415       .  A
C1010      F1011   1.357       .  S
C1015      C1016   1.402       .  A
C1015      C1020   1.401       .  A
C1015      F1022   1.358       .  S
C1016      C1017   1.403       .  A
C1017      C1018   1.392       .  A
C1017      F1024   1.359       .  S
C1018      C1019   1.413       .  A
C1018      F1023   1.357       .  S
C1019      C1020   1.418       .  A
C1020      F1021   1.355       .  S
C1025      C1030   1.392       .  A
C1025      F1032   1.358       .  S
C1026      C1027   1.410       .  A
C1027      F1034   1.358   1_545  S
C1028      C1029   1.404       .  A
C1029      C1030   1.413       .  A
C1030      F1031   1.358       .  S
C1035      C1036   1.405       .  A
C1035      C1040   1.396       .  A
C1035      F1042   1.358       .  S
C1036      C1037   1.419       .  A
C1037      C1038   1.399       .  A
C1037      F1044   1.351       .  S
C1038      C1039   1.399       .  A
C1038      F1043   1.358       .  S
C1039      C1040   1.415       .  A
C1040      F1041   1.358       .  S
O1045      C1061   1.284       .  A
O1045     Zn1051   2.083       .  S
C1046      O1062   1.277       .  A
C1046      O1059   1.272       .  A
C1046      C1167   1.467       .  S
O1047      C1060   1.283       .  A
O1047     Cd1054   2.091       .  S
O1048      C1066   1.277       .  A
O1048     Cd1057   2.072   1_545  S
O1049      C1063   1.268   1_565  A
O1049     Cd1053   2.035       .  S
O1050      C1061   1.267       .  A
O1050     Cd1053   2.006       .  S
Zn1051     O1062   2.045       .  S
Zn1051     O1064   2.077       .  S
Zn1051     O1056   1.930       .  S
O1052      C1063   1.274   1_565  A
O1052     Cd1057   2.094       .  S
Cd1053     O1055   2.018       .  S
Cd1053     O1056   1.950       .  S
Cd1054     O1058   2.098       .  S
Cd1054     O1067   2.086       .  S
Cd1054     O1056   1.967       .  S
O1055      C1065   1.267       .  A
O1056     Cd1057   1.985       .  S
Cd1057     O1059   2.055       .  S
O1058      C1065   1.276       .  A
C1060      O1064   1.284       .  A
C1060      C1075   1.495       .  S
C1061      C1387   1.486       .  S
C1063      C1374   1.473       .  S
C1065      C1364   1.474       .  S
C1066      O1067   1.283   1_545  A
C1068      C1069   1.539       .  S
C1068      C1074   1.537       .  S
C1068      C1072   1.541       .  S
C1068      C1357   1.539       .  S
C1069      H1076   1.085       .  S
C1069      C1070   1.362       .  D
C1070      C1071   1.544       .  S
C1071      C1075   1.546       .  S
C1071      C1073   1.539       .  S
C1071      H1077   1.111       .  S
C1072      H1078   1.085       .  S
C1072      C1073   1.365       .  D
C1073      C1155   1.464       .  S
C1074      H1079   1.086       .  S
C1074      C1075   1.369       .  D
C1080      C1086   1.526       .  S
C1080      C1344   1.540       .  S
C1081      H1088   1.088       .  S
C1081      C1082   1.364       .  D
C1082      C1377   1.488   1_554  S
C1083      C1087   1.547       .  S
C1084      H1090   1.077       .  S
C1084      C1085   1.384       .  D
C1085      C1384   1.504   1_554  S
C1086      H1091   1.085       .  S
C1086      C1087   1.362       .  D
C1087      C1354   1.496       .  S
O1092      C1108   1.276       .  A
O1092     Zn1098   2.087       .  S
C1093      O1109   1.275       .  A
C1093      O1106   1.276       .  A
C1093      C1214   1.466       .  S
O1095      C1113   1.281       .  A
O1095     Cd1104   2.104       .  S
O1096      C1110   1.268       .  A
O1096     Cd1100   2.005       .  S
O1097      C1108   1.264       .  A
O1097     Cd1100   2.018       .  S
Zn1098     O1109   2.020   1_655  S
Zn1098     O1111   2.051       .  S
Zn1098     O1103   1.947       .  S
O1099      C1110   1.280       .  A
O1099     Cd1104   2.107       .  S
Cd1100     O1102   2.017       .  S
Cd1100     O1103   1.940       .  S
Cd1101     O1105   2.120       .  S
Cd1101     O1103   1.979       .  S
O1102      C1112   1.265       .  A
O1103     Cd1104   1.993       .  S
Cd1104     O1106   2.080   1_655  S
O1105      C1112   1.278       .  A
C1107      O1111   1.281       .  A
C1108      C1337   1.486       .  S
C1110      C1324   1.464       .  S
C1112      C1347   1.482       .  S
C1115      C1116   1.537       .  S
C1115      C1121   1.543       .  S
C1115      C1119   1.542       .  S
C1115      C1314   1.544       .  S
C1116      H1123   1.086       .  S
C1116      C1117   1.369       .  D
C1117      C1118   1.549   1_556  S
C1118      C1122   1.546   1_554  S
C1118      C1120   1.540   1_654  S
C1119      H1125   1.086   1_655  S
C1119      C1120   1.367   1_655  D
C1120      C1187   1.467       .  S
C1121      H1126   1.082       .  S
C1121      C1122   1.363       .  D
C1127      C1128   1.543       .  S
C1127      C1133   1.516       .  S
C1127      C1131   1.537       .  S
C1127      C1367   1.530       .  S
C1128      H1135   1.081       .  S
C1128      C1129   1.376       .  D
C1129      C1327   1.505       .  S
C1129      C1130   1.548       .  S
C1130      C1134   1.558       .  S
C1130      C1132   1.534       .  S
C1130      H1136   1.105       .  S
C1131      H1137   1.087       .  S
C1131      C1132   1.367       .  D
C1132      C1334   1.493       .  S
C1133      H1138   1.085       .  S
C1133      C1134   1.361       .  D
C1134      C1317   1.497       .  S
O1139      C1155   1.271       .  A
O1139     Zn1145   2.002       .  S
C1140      O1156   1.273       .  A
C1140      O1153   1.267       .  A
C1140      C1297   1.471       .  S
O1141      C1154   1.286       .  A
O1141     Cd1148   2.106       .  S
O1142      C1160   1.266       .  A
O1142     Cd1151   2.015       .  S
O1143      C1157   1.282       .  A
O1143     Cd1147   2.114       .  S
O1144      C1155   1.277       .  A
O1144     Cd1147   2.085       .  S
Zn1145     O1156   2.047       .  S
Zn1145     O1158   2.026       .  S
Zn1145     O1150   1.928       .  S
O1146      C1157   1.265       .  A
O1146     Cd1151   2.002       .  S
Cd1147     O1149   2.108       .  S
Cd1147     O1150   1.990       .  S
Cd1148     O1152   2.091       .  S
Cd1148     O1161   2.110       .  S
Cd1148     O1150   1.968       .  S
O1149      C1159   1.282       .  A
O1150     Cd1151   1.947       .  S
Cd1151     O1153   2.023       .  S
O1152      C1159   1.284       .  A
C1154      O1158   1.277       .  A
C1154      C1164   1.486       .  S
C1160      O1161   1.278       .  A
C1160      C1284   1.480       .  S
C1162      C1163   1.533       .  S
C1162      C1168   1.544       .  S
C1162      C1166   1.539       .  S
C1162      C1274   1.538       .  S
C1163      H1170   1.087       .  S
C1163      C1164   1.363       .  D
C1164      C1165   1.548       .  S
C1165      C1169   1.547       .  S
C1165      C1167   1.542       .  S
C1165      H1171   1.111       .  S
C1166      H1172   1.086       .  S
C1166      C1167   1.364       .  D
C1168      H1173   1.081       .  S
C1168      C1169   1.367       .  D
C1174      C1175   1.541       .  S
C1174      C1180   1.525       .  S
C1174      C1178   1.545       .  S
C1174      C1267   1.537       .  S
C1175      H1182   1.078       .  S
C1175      C1176   1.366       .  D
C1176      C1294   1.489       .  S
C1176      C1177   1.546       .  S
C1177      C1181   1.546       .  S
C1177      C1179   1.532       .  S
C1177      H1183   1.105       .  S
C1178      H1184   1.085       .  S
C1178      C1179   1.375       .  D
C1179      C1304   1.501       .  S
C1180      C1181   1.362       .  D
O1186      C1202   1.283       .  A
O1186     Zn1192   2.076       .  S
C1187      O1203   1.276       .  A
C1187      O1200   1.274       .  A
O1188      C1201   1.284   1_565  A
O1188     Cd1195   2.095       .  S
O1189      C1207   1.279       .  A
O1190      C1204   1.266       .  A
O1190     Cd1194   2.028       .  S
O1191      C1202   1.267       .  A
O1191     Cd1194   2.010       .  S
Zn1192     O1203   2.038       .  S
Zn1192     O1197   1.935       .  S
O1193      C1204   1.274       .  A
O1193     Cd1198   2.095       .  S
Cd1194     O1196   2.021       .  S
Cd1194     O1197   1.950       .  S
Cd1195     O1199   2.098       .  S
Cd1195     O1208   2.094       .  S
O1197     Cd1198   1.991       .  S
Cd1198     O1200   2.065       .  S
O1199      C1206   1.276       .  A
C1201      O1205   1.283       .  A
C1204      C1244   1.470       .  S
C1206      C1264   1.473       .  S
C1207      O1208   1.284       .  A
C1207      C1211   1.487       .  S
C1209      C1210   1.542       .  S
C1209      C1215   1.545       .  S
C1209      C1213   1.533       .  S
C1209      C1237   1.538       .  S
C1210      H1217   1.084       .  S
C1210      C1211   1.365       .  D
C1211      C1212   1.546       .  S
C1212      C1216   1.548       .  S
C1212      C1214   1.538       .  S
C1212      H1218   1.111       .  S
C1213      H1219   1.087       .  S
C1213      C1214   1.362       .  D
C1215      H1220   1.085       .  S
C1215      C1216   1.369       .  D
C1221      C1222   1.542       .  S
C1221      C1227   1.533       .  S
C1221      C1225   1.539       .  S
C1221      C1287   1.534       .  S
C1222      H1229   1.084       .  S
C1222      C1223   1.367       .  D
C1223      C1247   1.483       .  S
C1223      C1224   1.541       .  S
C1224      C1228   1.537       .  S
C1224      C1226   1.535       .  S
C1224      H1230   1.107       .  S
C1225      H1231   1.085       .  S
C1225      C1226   1.376       .  D
C1226      C1257   1.498       .  S
C1227      H1232   1.084       .  S
C1227      C1228   1.357       .  D
C1228      C1234   1.472       .  S
C1233      C1234   1.399       .  A
C1233      C1238   1.398       .  A
C1233      F1240   1.358       .  S
C1234      C1235   1.397       .  A
C1235      C1236   1.400       .  A
C1235      F1242   1.358       .  S
C1236      C1237   1.421       .  A
C1236      F1241   1.356       .  S
C1237      C1238   1.416       .  A
C1238      F1239   1.357       .  S
C1243      C1244   1.400       .  A
C1243      C1248   1.390       .  A
C1243      F1250   1.358       .  S
C1244      C1245   1.409       .  A
C1245      C1246   1.403       .  A
C1245      F1252   1.358       .  S
C1246      C1247   1.403       .  A
C1246      F1251   1.357       .  S
C1247      C1248   1.412       .  A
C1248      F1249   1.357       .  S
C1253      C1254   1.402       .  A
C1253      C1258   1.399       .  A
C1253      F1260   1.358       .  S
C1255      F1262   1.357       .  S
C1256      C1257   1.403       .  A
C1256      F1261   1.358       .  S
C1257      C1258   1.417       .  A
C1258      F1259   1.351       .  S
C1263      C1264   1.400       .  A
C1263      C1268   1.400       .  A
C1263      F1270   1.358       .  S
C1264      C1265   1.402       .  A
C1265      C1266   1.395       .  A
C1266      C1267   1.414       .  A
C1267      C1268   1.421       .  A
C1268      F1269   1.353       .  S
C1273      C1274   1.418       .  A
C1273      C1278   1.403       .  A
C1273      F1280   1.357       .  S
C1274      C1275   1.416       .  A
C1275      C1276   1.394       .  A
C1275      F1282   1.354       .  S
C1276      C1277   1.406       .  A
C1276      F1281   1.358       .  S
C1277      C1278   1.402       .  A
C1283      C1284   1.402       .  A
C1283      C1288   1.401       .  A
C1283      F1290   1.358       .  S
C1284      C1285   1.408       .  A
C1285      C1286   1.395       .  A
C1285      F1292   1.359       .  S
C1286      C1287   1.411       .  A
C1286      F1291   1.357       .  S
C1287      C1288   1.418       .  A
C1288      F1289   1.356       .  S
C1293      C1294   1.403       .  A
C1293      C1298   1.405       .  A
C1293      F1300   1.357       .  S
C1294      C1295   1.415       .  A
C1295      C1296   1.388       .  A
C1295      F1302   1.357       .  S
C1296      C1297   1.399       .  A
C1296      F1301   1.359       .  S
C1297      C1298   1.411       .  A
C1298      F1299   1.357       .  S
C1303      C1304   1.419       .  A
C1303      C1308   1.396       .  A
C1303      F1310   1.351       .  S
C1304      C1305   1.405   1_565  A
C1305      C1306   1.395       .  A
C1305      F1312   1.358       .  S
C1306      C1307   1.416       .  A
C1307      C1308   1.400   1_545  A
C1308      F1309   1.358       .  S
C1313      C1314   1.418       .  A
C1313      C1318   1.409       .  A
C1313      F1320   1.357       .  S
C1314      C1315   1.415       .  A
C1315      C1316   1.392       .  A
C1315      F1322   1.356       .  S
C1316      C1317   1.408       .  A
C1316      F1321   1.359       .  S
C1317      C1318   1.406       .  A
C1318      F1319   1.356       .  S
C1323      C1328   1.386       .  A
C1323      F1330   1.360       .  S
C1324      C1325   1.399       .  A
C1325      C1326   1.405       .  A
C1325      F1332   1.357       .  S
C1326      F1331   1.355       .  S
C1327      C1328   1.418   1_565  A
C1328      F1329   1.355   1_545  S
C1333      C1334   1.410       .  A
C1333      C1338   1.391       .  A
C1333      F1340   1.357       .  S
C1334      C1335   1.407       .  A
C1335      C1336   1.409       .  A
C1335      F1342   1.357       .  S
C1336      C1337   1.411       .  A
C1336      F1341   1.357       .  S
C1337      C1338   1.407       .  A
C1338      F1339   1.359       .  S
C1343      C1344   1.416       .  A
C1343      C1348   1.395       .  A
C1343      F1350   1.358       .  S
C1344      C1345   1.419       .  A
C1345      C1346   1.406       .  A
C1346      C1347   1.402       .  A
C1347      C1348   1.405       .  A
C1348      F1349   1.359       .  S
C1353      C1354   1.407       .  A
C1353      C1358   1.394       .  A
C1353      F1360   1.358       .  S
C1354      C1355   1.407       .  A
C1355      C1356   1.405       .  A
C1355      F1362   1.357       .  S
C1356      C1357   1.417       .  A
C1356      F1361   1.357       .  S
C1357      C1358   1.415       .  A
C1358      F1359   1.357       .  S
C1363      C1364   1.402       .  A
C1363      C1368   1.401       .  A
C1363      F1370   1.358       .  S
C1364      C1365   1.403       .  A
C1365      C1366   1.392       .  A
C1365      F1372   1.359       .  S
C1366      C1367   1.413       .  A
C1366      F1371   1.357       .  S
C1367      C1368   1.418       .  A
C1368      F1369   1.355       .  S
C1373      C1378   1.392       .  A
C1373      F1380   1.358       .  S
C1374      C1375   1.410       .  A
C1375      F1382   1.358   1_545  S
C1376      C1377   1.404       .  A
C1377      C1378   1.413       .  A
C1378      F1379   1.358       .  S
C1383      C1384   1.405       .  A
C1383      C1388   1.396       .  A
C1383      F1390   1.358   1_556  S
C1384      C1385   1.419       .  A
C1385      C1386   1.399       .  A
C1385      F1392   1.351       .  S
C1386      C1387   1.399       .  A
C1386      F1391   1.358       .  S
C1387      C1388   1.415       .  A
C1388      F1389   1.358       .  S
