geometry optimzed in LAMMPS
_audit_creation_date              2020-11-30 
_audit_creation_method            'lammps2cif' 
_symmetry_space_group_name_H-M    'P1' 
_symmetry_Int_Tables_number       1 
_symmetry_cell_setting            triclinic 
loop_ 
_symmetry_equiv_pos_as_xyz 
  x,y,z 
_cell_length_a                    27.90821281 
_cell_length_b                    27.849149277170213 
_cell_length_c                    27.84306305294201 
_cell_angle_alpha                 90.03040679532221 
_cell_angle_beta                  89.97503462827612 
_cell_angle_gamma                 90.00942975386099 
loop_ 
_atom_site_label 
_atom_site_type_symbol 
_atom_site_fract_x 
_atom_site_fract_y 
_atom_site_fract_z 
_atom_site_charge 
O1          O  0.99551525  0.08148985  0.13477579    -0.86500
O2          O  0.00315263  0.08069735  0.86372293    -0.86700
O3          O  0.07821870  0.14009565  0.00464540    -0.88300
O4          O  0.92183098  0.13830163  0.99456504    -0.87100
O5          O  0.86485827  0.07896515  0.99501851    -0.86700
O6          O  0.13712972  0.08240649  0.00431229    -0.88100
O7          O  0.00124717  0.13914209  0.92194416    -0.86500
O8          O  0.99500620  0.13990556  0.07690451    -0.86100
Zr9        Zr  0.00045925  0.09970370  0.99962780     2.84300
O10         O  0.95425483  0.05016922  0.95021145    -1.08100
O11         O  0.04838001  0.05220633  0.04955222    -1.08800
C12         C  0.99352189  0.12569094  0.12101389     1.06600
C13         C  0.00224785  0.12489377  0.87786341     1.06500
C14         C  0.12249442  0.12637633  0.00586508     1.09500
C15         C  0.87788895  0.12345377  0.99413503     1.07300
H16         H  0.07204167  0.07250721  0.93275675     0.32900
O17         O  0.05171645  0.05244146  0.95222449    -1.29000
H18         H  0.92993352  0.07045294  0.06662515     0.32500
O19         O  0.95106095  0.05092769  0.04719277    -1.30700
O20         O  0.00829860  0.92453991  0.86368230    -0.86500
O21         O  0.00074722  0.92554796  0.13667455    -0.88000
O22         O  0.14097613  0.00191417  0.92634290    -0.86600
O23         O  0.86884900  0.00136908  0.91802054    -0.86600
O24         O  0.86388510  0.99728276  0.07539229    -0.86300
O25         O  0.13571764  0.00678269  0.08152252    -0.86100
O26         O  0.08076455  0.86731648  0.99994474    -0.86500
O27         O  0.92509177  0.86529037  0.99415588    -0.86000
O28         O  0.13849178  0.92589033  0.00292598    -0.87000
O29         O  0.86625117  0.92287724  0.99292225    -0.86200
O30         O  0.08446087  0.99944162  0.86666497    -0.86600
O31         O  0.07594777  0.00659781  0.13829097    -0.86300
O32         O  0.92097231  0.99855205  0.13445426    -0.86000
O33         O  0.92854176  0.00014215  0.86112825    -0.86400
O34         O  0.00562755  0.86620496  0.92178252    -0.86700
O35         O  0.99889140  0.86678714  0.07864967    -0.88000
Zr36       Zr  0.00501656  0.00258411  0.90321659     2.83100
Zr37       Zr  0.99933362  0.00298986  0.09641408     2.83500
Zr38       Zr  0.09849790  0.00392303  0.00259567     2.84100
Zr39       Zr  0.90502229  0.00129387  0.99760180     2.83400
Zr40       Zr  0.00250243  0.90572366  0.00004234     2.84200
O41         O  0.95233643  0.95335301  0.04756092    -1.08600
O42         O  0.05207622  0.95461204  0.95315242    -1.08100
C43         C  0.00791359  0.88031568  0.87760478     1.06600
C44         C  0.99937087  0.88136314  0.12276456     1.09200
C45         C  0.12822272  0.99888166  0.88189373     1.06800
C46         C  0.88412579  0.99973924  0.87424038     1.07100
C47         C  0.87712726  0.99618280  0.11997299     1.06700
C48         C  0.12034262  0.00816463  0.12523733     1.06200
C49         C  0.12475779  0.88157910  0.00080823     1.06700
C50         C  0.88088391  0.87886884  0.99127502     1.06200
H51         H  0.06938027  0.93485271  0.07045400     0.32900
O52         O  0.04968235  0.95450484  0.04987010    -1.29700
H53         H  0.93646359  0.93354354  0.92919423     0.32900
O54         O  0.95539253  0.95372834  0.95010156    -1.31100
O55         O  0.00063690  0.42246413  0.36378806    -0.86500
O56         O  0.99592314  0.42394781  0.63680992    -0.86700
O57         O  0.07811928  0.36410593  0.50167529    -0.88300
O58         O  0.92281968  0.36390439  0.49632030    -0.87100
O59         O  0.86462294  0.42181102  0.49486268    -0.86700
O60         O  0.13629143  0.42168538  0.50463563    -0.88100
O61         O  0.99568438  0.36510980  0.57892041    -0.86500
O62         O  0.00281748  0.36427033  0.42229868    -0.86100
Zr63       Zr  0.00042583  0.40377663  0.50047311     2.84300
O64         O  0.95112277  0.45205037  0.54829680    -1.08100
O65         O  0.05004127  0.45161047  0.45263859    -1.08800
C66         C  0.00160091  0.37840029  0.37812881     1.06600
C67         C  0.99421955  0.37973267  0.62295965     1.06500
C68         C  0.12234875  0.37738774  0.50365160     1.09500
C69         C  0.87869537  0.37753154  0.49382359     1.07300
H70         H  0.06750816  0.43188741  0.57137422     0.32900
O71         O  0.04807210  0.45169183  0.55061160    -1.29000
H72         H  0.93369615  0.43234168  0.43010000     0.32500
O73         O  0.95332340  0.45213802  0.45064721    -1.30700
O74         O  0.00122673  0.57977054  0.63557060    -0.86500
O75         O  0.00369359  0.57831079  0.36263804    -0.88000
O76         O  0.13492248  0.50542163  0.58142343    -0.86600
O77         O  0.86345523  0.49833888  0.57662540    -0.86600
O78         O  0.86594679  0.50187985  0.42005729    -0.86300
O79         O  0.13872639  0.49830798  0.42598757    -0.86100
O80         O  0.07932224  0.63629657  0.49995443    -0.86500
O81         O  0.92244271  0.63703526  0.49572501    -0.86000
O82         O  0.13658985  0.57736453  0.50236795    -0.87000
O83         O  0.86479994  0.57816845  0.49661229    -0.86200
O84         O  0.07541998  0.50448257  0.63830729    -0.86600
O85         O  0.08276168  0.49722167  0.36589846    -0.86300
O86         O  0.92534205  0.50367690  0.36296486    -0.86000
O87         O  0.92056841  0.50097950  0.63590562    -0.86400
O88         O  0.00191524  0.63799376  0.57728212    -0.86700
O89         O  0.00085146  0.63671372  0.42059623    -0.88000
Zr90       Zr  0.99860524  0.50146936  0.59686135     2.83100
Zr91       Zr  0.00304474  0.50047839  0.40306195     2.83500
Zr92       Zr  0.09697500  0.49997548  0.50254038     2.84100
Zr93       Zr  0.90399706  0.50023055  0.49866644     2.83400
Zr94       Zr  0.00064287  0.59778742  0.49922355     2.84200
O95         O  0.95332437  0.54851445  0.45064997    -1.08600
O96         O  0.04769402  0.54931879  0.54889886    -1.08100
C97         C  0.00278591  0.62390105  0.62153511     1.06600
C98         C  0.00251697  0.62263912  0.37634986     1.09200
C99         C  0.11978980  0.50688358  0.62529400     1.06800
C100        C  0.87677899  0.49865553  0.62113193     1.07100
C101        C  0.88092205  0.50398234  0.37620664     1.06700
C102        C  0.12655668  0.49667826  0.38135445     1.06200
C103        C  0.12330844  0.62164486  0.50098138     1.06700
C104        C  0.87846221  0.62242662  0.49553918     1.06200
H105        H  0.07118319  0.56869678  0.43234205     0.32900
O106        O  0.05058549  0.54901841  0.45220619    -1.29700
H107        H  0.93062025  0.57016086  0.56728035     0.32900
O108        O  0.95088791  0.55003687  0.54768651    -1.31100
O109        O  0.63577052  0.99945490  0.41953830    -0.86500
O110        O  0.36445042  0.00176035  0.42463708    -0.86700
O111        O  0.49722716  0.92113499  0.36398789    -0.88300
O112        O  0.49775314  0.07728722  0.36395035    -0.87100
O113        O  0.49908496  0.13612246  0.42151087    -0.86700
O114        O  0.49871714  0.86300367  0.42248167    -0.88100
O115        O  0.42072863  0.00144079  0.36487178    -0.86500
O116        O  0.57635832  0.99639977  0.36234384    -0.86100
Zr117      Zr  0.49928496  0.99922045  0.40345832     2.84300
O118        O  0.45233808  0.04827646  0.45271916    -1.08100
O119        O  0.54866623  0.95098629  0.45119766    -1.08800
C120        C  0.62065166  0.99771224  0.37567606     1.06600
C121        C  0.37693015  0.00277655  0.38001891     1.06500
C122        C  0.49725114  0.87703317  0.37831259     1.09500
C123        C  0.49728095  0.12167045  0.37735947     1.07300
H124        H  0.43078015  0.93119536  0.43292214     0.32900
O125        O  0.45134268  0.95096433  0.45263014    -1.29000
H126        H  0.56888562  0.06774893  0.42995139     0.32500
O127        O  0.54928617  0.04790088  0.45049945    -1.30700
O128        O  0.36725841  0.99897564  0.58146464    -0.86500
O129        O  0.63898228  0.99690912  0.57676482    -0.88000
O130        O  0.42275117  0.86322100  0.50120604    -0.86600
O131        O  0.42482432  0.13723641  0.49902883    -0.86600
O132        O  0.57978843  0.13603656  0.49789561    -0.86300
O133        O  0.57903613  0.86280913  0.49756089    -0.86100
O134        O  0.49867856  0.92225228  0.63703493    -0.86500
O135        O  0.50547919  0.07784337  0.63698010    -0.86000
O136        O  0.49717540  0.86388623  0.57881252    -0.87000
O137        O  0.50372003  0.13596227  0.57847510    -0.86200
O138        O  0.36492245  0.92196961  0.50187143    -0.86600
O139        O  0.63680690  0.92144329  0.49619923    -0.86300
O140        O  0.63796655  0.07763146  0.49968721    -0.86000
O141        O  0.36613078  0.07926360  0.50099953    -0.86400
O142        O  0.42669442  0.00018280  0.63854325    -0.86700
O143        O  0.58161716  0.99607433  0.63570468    -0.88000
Zr144      Zr  0.40465426  0.00026430  0.50221201     2.83100
Zr145      Zr  0.59816213  0.99950836  0.49885626     2.83500
Zr146      Zr  0.50082138  0.90263989  0.50039095     2.84100
Zr147      Zr  0.50202259  0.09666751  0.49996997     2.83400
Zr148      Zr  0.50337684  0.99992849  0.59710026     2.84200
O149        O  0.55133241  0.04863494  0.54824325    -1.08600
O150        O  0.45374845  0.95162667  0.54969381    -1.08100
C151        C  0.38240202  0.99860371  0.62534114     1.06600
C152        C  0.62556684  0.99522252  0.62126658     1.09200
C153        C  0.37873499  0.87763466  0.50111455     1.06800
C154        C  0.38072128  0.12332578  0.49955332     1.07100
C155        C  0.62378904  0.12180709  0.49857445     1.06700
C156        C  0.62313441  0.87720715  0.49640364     1.06200
C157        C  0.49597813  0.87813163  0.62298416     1.06700
C158        C  0.50444940  0.12197442  0.62275640     1.06200
H159        H  0.57054064  0.93015082  0.56778424     0.32900
O160        O  0.55062840  0.95061750  0.54814186    -1.29700
H161        H  0.43446342  0.06905795  0.57012841     0.32900
O162        O  0.45400714  0.04887218  0.54981200    -1.31100
O163        O  0.42099087  0.36730699  0.00566063    -0.86500
O164        O  0.42710190  0.64092781  0.99837706    -0.86700
O165        O  0.36871485  0.50199578  0.08365046    -0.88300
O166        O  0.36131890  0.50572281  0.92749580    -0.87100
O167        O  0.41740383  0.50320316  0.86713366    -0.86700
O168        O  0.42900014  0.50089197  0.13982835    -0.88100
O169        O  0.36779396  0.58391730  0.00313809    -0.86500
O170        O  0.36410139  0.42679161  0.00917988    -0.86100
Zr171      Zr  0.40454535  0.50408351  0.00365244     2.84300
O172        O  0.45223470  0.55088388  0.95316446    -1.08100
O173        O  0.45420339  0.45453941  0.04939552    -1.08800
C174        C  0.37737907  0.38233601  0.00975680     1.06600
C175        C  0.38273891  0.62778312  0.99985186     1.06500
C176        C  0.38450582  0.50002444  0.12725639     1.09500
C177        C  0.37386477  0.50565312  0.88279707     1.07300
H178        H  0.43652115  0.57210124  0.07103524     0.32900
O179        O  0.45547467  0.55167424  0.05041317    -1.29000
H180        H  0.42796679  0.43366876  0.93408650     0.32500
O181        O  0.44919874  0.45340284  0.95307247    -1.30700
O182        O  0.58229771  0.63622542  0.99265745    -0.86500
O183        O  0.57729990  0.36417890  0.99646307    -0.88000
O184        O  0.50670270  0.57954414  0.13563864    -0.86600
O185        O  0.49441349  0.57842003  0.86351474    -0.86600
O186        O  0.49515583  0.42316260  0.86287732    -0.85900
O187        O  0.49990281  0.42246163  0.13525501    -0.86100
O188        O  0.63973833  0.50299885  0.07390948    -0.86500
O189        O  0.63381744  0.49569554  0.91738782    -0.86000
O190        O  0.58354865  0.50087553  0.13420920    -0.87000
O191        O  0.57394291  0.49759078  0.86080326    -0.86200
O192        O  0.50651338  0.63810554  0.07753031    -0.86600
O193        O  0.49897994  0.36425679  0.07675269    -0.86300
O194        O  0.49753672  0.36523295  0.92136163    -0.86000
O195        O  0.49928920  0.63709782  0.92133548    -0.86400
O196        O  0.63926318  0.57702461  0.99024314    -0.86700
O197        O  0.63613407  0.42189846  0.99601423    -0.88000
Zr198      Zr  0.50346744  0.59851155  0.99947728     2.83100
Zr199      Zr  0.49969324  0.40476191  0.99953958     2.83500
Zr200      Zr  0.50474591  0.50143579  0.09664347     2.84100
Zr201      Zr  0.49718176  0.50079346  0.90305012     2.83400
Zr202      Zr  0.59779013  0.50018338  0.99675761     2.84200
O203        O  0.54713753  0.45235115  0.94973917    -1.08600
O204        O  0.55263182  0.54981706  0.04710315    -1.08100
C205        C  0.62614003  0.62148074  0.98932863     1.06600
C206        C  0.62156307  0.37791617  0.99613548     1.09200
C207        C  0.50754137  0.62372911  0.12164673     1.06800
C208        C  0.49551985  0.62256850  0.87747547     1.07100
C209        C  0.49573112  0.37903386  0.87709706     1.06700
C210        C  0.49794048  0.37827820  0.12091606     1.06200
C211        C  0.62711097  0.50263792  0.11861903     1.06700
C212        C  0.61841533  0.49510968  0.87367932     1.06200
H213        H  0.57109138  0.43140960  0.06658190     0.32900
O214        O  0.55092348  0.45174227  0.04707945    -1.29700
H215        H  0.56800797  0.56801552  0.92776395     0.32900
O216        O  0.54857966  0.54874119  0.94913474    -1.31100
C217        C  0.47007690  0.18892715  0.26068775    -0.22500
C218        C  0.49605406  0.23136829  0.26770484     0.09500
C219        C  0.52087470  0.23849602  0.31123318     0.09900
C220        C  0.52034163  0.20229413  0.34634991    -0.17400
C221        C  0.49539924  0.15899699  0.33911145    -0.27800
C222        C  0.46916471  0.15267103  0.29581936     0.18200
C223        C  0.49620665  0.26820423  0.22919795     0.12200
C224        C  0.54803891  0.28429337  0.32051206    -0.12200
H225        H  0.54013631  0.20761772  0.37941640     0.12500
C226        C  0.43866972  0.10882142  0.28686344    -0.23000
H227        H  0.45039876  0.18423532  0.22744748     0.08100
C228        C  0.52994029  0.26697530  0.19142162     0.04400
C229        C  0.52893270  0.30297439  0.15615023    -0.20200
C230        C  0.49518810  0.34032211  0.15791276    -0.12500
C231        C  0.46008142  0.34034571  0.19469815     0.13200
C232        C  0.46148668  0.30455903  0.23020545    -0.23000
C233        C  0.56723854  0.22798514  0.18856404    -0.06000
H234        H  0.55526416  0.30253068  0.12750247     0.14700
C235        C  0.41947724  0.37603069  0.19655031    -0.16200
H236        H  0.43490740  0.30463923  0.25862804     0.09000
H237        H  0.41757050  0.11212568  0.25320778     0.06900
H238        H  0.41297320  0.10386543  0.31693567     0.08100
H239        H  0.46158820  0.07649125  0.28319861     0.07100
H240        H  0.52309560  0.31531324  0.31910850     0.02000
H241        H  0.57630552  0.28900360  0.29285659     0.02500
H242        H  0.56551575  0.28410512  0.35635118     0.06000
H243        H  0.59057582  0.23221215  0.15649973     0.05000
H244        H  0.54949307  0.19238335  0.18627059    -0.00800
H245        H  0.59029298  0.22905978  0.22102103     0.00700
H246        H  0.38481295  0.35645065  0.19728881     0.04300
H247        H  0.41847096  0.40023016  0.16505595     0.06300
H248        H  0.42245860  0.39814778  0.22959519     0.07100
C249        C  0.46673730  0.80229878  0.26826732    -0.22500
C250        C  0.50258106  0.76725130  0.27061305     0.09500
C251        C  0.53607515  0.76799178  0.30845010     0.09900
C252        C  0.53276922  0.80393497  0.34352406    -0.17400
C253        C  0.49701997  0.83931169  0.34123691    -0.27800
C254        C  0.46312107  0.83816134  0.30338521     0.18200
C255        C  0.50409957  0.72992122  0.23306119     0.12200
C256        C  0.57514025  0.73086068  0.31177628    -0.12200
H257        H  0.55868879  0.80491729  0.37251175     0.12500
C258        C  0.42174981  0.87274346  0.29959297    -0.23000
H259        H  0.44096234  0.80119864  0.23913853     0.08100
C260        C  0.47366077  0.68959929  0.23486325     0.04400
C261        C  0.47597495  0.65541849  0.19802160    -0.20200
C262        C  0.50825522  0.66057978  0.15964864    -0.12500
C263        C  0.53968867  0.70053051  0.15869549     0.13200
C264        C  0.53654790  0.73512612  0.19509530    -0.23000
C265        C  0.43904989  0.68256940  0.27578541    -0.06000
H266        H  0.45207044  0.62472375  0.19888550     0.14700
C267        C  0.57821900  0.70707204  0.12136160    -0.16200
H268        H  0.56022036  0.76601292  0.19438709     0.09000
H269        H  0.38760624  0.85231548  0.29793594     0.06900
H270        H  0.42543970  0.89424548  0.26622316     0.08100
H271        H  0.41898305  0.89750518  0.33056567     0.07100
H272        H  0.59793311  0.73221727  0.27913018     0.02000
H273        H  0.55905807  0.69454781  0.31507463     0.02500
H274        H  0.59851940  0.73709977  0.34335833     0.06000
H275        H  0.41826211  0.64881261  0.27180952     0.05000
H276        H  0.41332854  0.71293184  0.27711969    -0.00800
H277        H  0.45902740  0.68083062  0.31021698     0.00700
H278        H  0.57041363  0.73959042  0.09967421     0.04300
H279        H  0.58198426  0.67584712  0.09711556     0.06300
H280        H  0.61341014  0.71183297  0.13935718     0.07100
C281        C  0.46380191  0.80904874  0.73667739    -0.22500
C282        C  0.49289932  0.76843650  0.73133997     0.09500
C283        C  0.52068046  0.76268065  0.68947410     0.09900
C284        C  0.52065304  0.79909984  0.65476981    -0.17400
C285        C  0.49245369  0.84053248  0.66032530    -0.27800
C286        C  0.46223815  0.84474646  0.70116117     0.18200
C287        C  0.49324649  0.73186986  0.76969462     0.12200
C288        C  0.54971434  0.71778234  0.68110265    -0.12200
H289        H  0.54309670  0.79533871  0.62320265     0.12500
C290        C  0.42616759  0.88462016  0.70757944    -0.23000
H291        H  0.44142364  0.81240054  0.76836517     0.08100
C292        C  0.52952209  0.73122583  0.80497308     0.04400
C293        C  0.52897231  0.69524048  0.84004528    -0.20200
C294        C  0.49340040  0.65972421  0.84016043    -0.12500
C295        C  0.45674474  0.66059215  0.80513855     0.13200
C296        C  0.45701220  0.69700417  0.77033391    -0.23000
C297        C  0.56847544  0.76871935  0.80598603    -0.06000
H298        H  0.55682225  0.69438062  0.86718546     0.14700
C299        C  0.41678848  0.62407686  0.80509838    -0.16200
H300        H  0.42916212  0.69813154  0.74322761     0.09000
H301        H  0.43615504  0.90695997  0.73905937     0.06900
H302        H  0.39014642  0.86889391  0.71400812     0.08100
H303        H  0.42266019  0.90795496  0.67567750     0.07100
H304        H  0.52558506  0.68608503  0.68067006     0.02000
H305        H  0.57660255  0.71304727  0.70999946     0.02500
H306        H  0.56911112  0.71903304  0.64629101     0.06000
H307        H  0.59385000  0.76275390  0.83613165     0.05000
H308        H  0.55227025  0.80484014  0.81039618    -0.00800
H309        H  0.58933780  0.76795131  0.77210953     0.00700
H310        H  0.39001791  0.63160431  0.77657987     0.04300
H311        H  0.39793567  0.62458296  0.84021774     0.06300
H312        H  0.43140801  0.58762772  0.79848720     0.07100
C313        C  0.47249091  0.23275472  0.69595717    -0.22500
C314        C  0.50688265  0.23064848  0.73244105     0.09500
C315        C  0.54002114  0.19241253  0.73344784     0.09900
C316        C  0.53827537  0.15729157  0.69720950    -0.17400
C317        C  0.50392898  0.15948877  0.66033477    -0.27800
C318        C  0.46995175  0.19731379  0.66033380     0.18200
C319        C  0.50580656  0.26827995  0.76994868     0.12200
C320        C  0.57703760  0.18871062  0.77263321    -0.12200
H321        H  0.56407052  0.12818150  0.69739664     0.12500
C322        C  0.42909146  0.20052007  0.62502666    -0.23000
H323        H  0.44661752  0.26182032  0.69596562     0.08100
C324        C  0.53018297  0.31219714  0.76399002     0.04400
C325        C  0.52536863  0.34808686  0.79908701    -0.20200
C326        C  0.49595883  0.34134119  0.83957517    -0.12500
C327        C  0.46959754  0.29802196  0.84406057     0.13200
C328        C  0.47596464  0.26161477  0.80981860    -0.23000
C329        C  0.56118372  0.32103179  0.72058529    -0.06000
H330        H  0.54525905  0.38131262  0.79523828     0.14700
C331        C  0.43248177  0.28970604  0.88260329    -0.16200
H332        H  0.45601908  0.22836157  0.81322412     0.09000
H333        H  0.43298997  0.23349263  0.60297639     0.06900
H334        H  0.39465458  0.20244128  0.64495231     0.08100
H335        H  0.42655100  0.16918671  0.60075644     0.07100
H336        H  0.55901399  0.18594658  0.80807673     0.02000
H337        H  0.60029907  0.22103403  0.77235245     0.02500
H338        H  0.60022091  0.15661468  0.76794997     0.06000
H339        H  0.57767369  0.35732283  0.72138040     0.05000
H340        H  0.53925973  0.31812442  0.68744448    -0.00800
H341        H  0.59041188  0.29404888  0.71920602     0.00700
H342        H  0.39812633  0.27884324  0.86563074     0.04300
H343        H  0.42457923  0.32210518  0.90423716     0.06300
H344        H  0.44456079  0.26046115  0.90681220     0.07100
C345        C  0.81213369  0.26032499  0.46622527    -0.22500
C346        C  0.76708286  0.27038614  0.48587178     0.09500
C347        C  0.75822440  0.31573858  0.50643315     0.09900
C348        C  0.79504548  0.34994855  0.50761304    -0.17400
C349        C  0.84107366  0.33972241  0.48971358    -0.27800
C350        C  0.84937542  0.29430192  0.46776055     0.18200
C351        C  0.73069243  0.23181529  0.48770663     0.12200
C352        C  0.71008049  0.32779755  0.52779865    -0.12200
H353        H  0.78790902  0.38471988  0.52340045     0.12500
C354        C  0.89661031  0.28139237  0.44471915    -0.23000
H355        H  0.81831052  0.22534447  0.45026600     0.08100
C356        C  0.69600961  0.22594588  0.45133623     0.04400
C357        C  0.66114537  0.18996298  0.45631585    -0.20200
C358        C  0.66080388  0.15938173  0.49639454    -0.12500
C359        C  0.69558470  0.16542673  0.53283740     0.13200
C360        C  0.73028889  0.20144276  0.52778813    -0.23000
C361        C  0.69606215  0.25726467  0.40724956    -0.06000
H362        H  0.63437707  0.18517876  0.42848770     0.14700
C363        C  0.69624286  0.13604224  0.57825180    -0.16200
H364        H  0.75679779  0.20651079  0.55581554     0.09000
H365        H  0.90642805  0.30884662  0.41751742     0.06900
H366        H  0.89495356  0.24610433  0.42616502     0.08100
H367        H  0.92505850  0.27879267  0.47241693     0.07100
H368        H  0.70166321  0.30242020  0.55735336     0.02000
H369        H  0.68188144  0.32514491  0.49985060     0.02500
H370        H  0.70930912  0.36479776  0.54269314     0.06000
H371        H  0.66643465  0.24774934  0.38234888     0.05000
H372        H  0.73047716  0.25287451  0.38772692    -0.00800
H373        H  0.69173648  0.29547882  0.41763669     0.00700
H374        H  0.73062289  0.11615326  0.58050773     0.04300
H375        H  0.66638016  0.10994695  0.58050413     0.06300
H376        H  0.69334661  0.16027328  0.60981545     0.07100
C377        C  0.76619107  0.69466349  0.52225653    -0.22500
C378        C  0.76979852  0.73116885  0.48789839     0.09500
C379        C  0.80904724  0.73209482  0.45600050     0.09900
C380        C  0.84423656  0.69623779  0.45944981    -0.17400
C381        C  0.84055978  0.65935013  0.49368175    -0.27800
C382        C  0.80097021  0.65850866  0.52549847     0.18200
C383        C  0.73279192  0.76906225  0.48774131     0.12200
C384        C  0.81368463  0.77080169  0.41848137    -0.12200
H385        H  0.87449294  0.69666275  0.43501571     0.12500
C386        C  0.79602335  0.62076403  0.56407411    -0.23000
H387        H  0.73605219  0.69473860  0.54684618     0.08100
C388        C  0.68990060  0.76403033  0.46153080     0.04400
C389        C  0.65451327  0.79968283  0.46525907    -0.20200
C390        C  0.66124341  0.84022591  0.49460440    -0.12500
C391        C  0.70433501  0.84476960  0.52128433     0.13200
C392        C  0.73956705  0.80911033  0.51727423    -0.23000
C393        C  0.68150816  0.72088085  0.43001861    -0.06000
H394        H  0.62163675  0.79610314  0.44484889     0.14700
C395        C  0.71273424  0.88574965  0.55577556    -0.16200
H396        H  0.77240216  0.81199650  0.53788254     0.09000
H397        H  0.79134488  0.58478429  0.54762281     0.06900
H398        H  0.76437145  0.62743595  0.58734542     0.08100
H399        H  0.82838914  0.62074603  0.58727019     0.07100
H400        H  0.81589051  0.80650475  0.43609063     0.02000
H401        H  0.78209020  0.77011367  0.39430064     0.02500
H402        H  0.84627673  0.76583973  0.39613175     0.06000
H403        H  0.64594478  0.72234074  0.41234332     0.05000
H404        H  0.68297577  0.68764583  0.45195494    -0.00800
H405        H  0.70941015  0.71907748  0.40166140     0.00700
H406        H  0.74653427  0.88109906  0.57631159     0.04300
H407        H  0.68283242  0.88776485  0.58203906     0.06300
H408        H  0.71564879  0.92015829  0.53596173     0.07100
C409        C  0.18822195  0.25635215  0.51080005    -0.22500
C410        C  0.23570863  0.27100748  0.50423361     0.09500
C411        C  0.24610702  0.32014004  0.49860734     0.09900
C412        C  0.20851573  0.35358824  0.49882870    -0.17400
C413        C  0.16031446  0.33934895  0.50458993    -0.27800
C414        C  0.15031762  0.28956936  0.51132864     0.18200
C415        C  0.27390098  0.23399233  0.50351909     0.12200
C416        C  0.29699622  0.33735426  0.49317057    -0.12200
H417        H  0.21719091  0.39122349  0.49437087     0.12500
C418        C  0.10044021  0.27039591  0.51997127    -0.23000
H419        H  0.18087681  0.21841829  0.51556169     0.08100
C420        C  0.29098511  0.21293675  0.54631527     0.04400
C421        C  0.32561064  0.17649094  0.54371874    -0.20200
C422        C  0.34394936  0.16116893  0.49942302    -0.12500
C423        C  0.32775309  0.18306101  0.45656009     0.13200
C424        C  0.29255955  0.21900464  0.45918044    -0.23000
C425        C  0.27316335  0.22936841  0.59467794    -0.06000
H426        H  0.33857720  0.15991111  0.57643412     0.14700
C427        C  0.34677345  0.16954102  0.40768147    -0.16200
H428        H  0.27948396  0.23542927  0.42640246     0.09000
H429        H  0.10044621  0.23104935  0.52647459     0.06900
H430        H  0.07753816  0.27683442  0.48810301     0.08100
H431        H  0.08457342  0.28775995  0.55217526     0.07100
H432        H  0.31333806  0.32125326  0.46058648     0.02000
H433        H  0.31816309  0.32668662  0.52519525     0.02500
H434        H  0.29895283  0.37703747  0.48963594     0.06000
H435        H  0.29118216  0.20994710  0.62446498     0.05000
H436        H  0.23404777  0.22284791  0.59764008    -0.00800
H437        H  0.28037751  0.26832945  0.59913725     0.00700
H438        H  0.31673784  0.15755670  0.38443192     0.04300
H439        H  0.37367774  0.14027876  0.40902154     0.06300
H440        H  0.36391710  0.20134883  0.39086942     0.07100
C441        C  0.24096564  0.68815867  0.48038761    -0.22500
C442        C  0.23187811  0.73132257  0.50449084     0.09500
C443        C  0.18719196  0.73862341  0.52695952     0.09900
C444        C  0.15249187  0.70224699  0.52500737    -0.17400
C445        C  0.16148942  0.65862041  0.50123227    -0.27800
C446        C  0.20644400  0.65158903  0.47832051     0.18200
C447        C  0.26949256  0.76880064  0.50451371     0.12200
C448        C  0.17635300  0.78456658  0.55337049    -0.12200
H449        H  0.11831405  0.70772334  0.54270411     0.12500
C450        C  0.21801875  0.60670074  0.45012164    -0.23000
H451        H  0.27532221  0.68327346  0.46286616     0.08100
C452        C  0.30879630  0.76677006  0.53626370     0.04400
C453        C  0.34400715  0.80274743  0.53417414    -0.20200
C454        C  0.34116522  0.84019615  0.50047271    -0.12500
C455        C  0.30265212  0.84089654  0.46727575     0.13200
C456        C  0.26686490  0.80565923  0.47043605    -0.23000
C457        C  0.31350664  0.72661801  0.57218964    -0.06000
H458        H  0.37378158  0.80183126  0.55916341     0.14700
C459        C  0.29915499  0.87645057  0.42653843    -0.16200
H460        H  0.23724826  0.80616092  0.44523007     0.09000
H461        H  0.21990330  0.57520358  0.47442584     0.06900
H462        H  0.25325270  0.60942675  0.43174560     0.08100
H463        H  0.19031716  0.60061231  0.42213900     0.07100
H464        H  0.17866969  0.81544240  0.52828698     0.02000
H465        H  0.20259888  0.78963776  0.58289566     0.02500
H466        H  0.13982421  0.78423129  0.56924839     0.06000
H467        H  0.34596943  0.73084796  0.59486685     0.05000
H468        H  0.31620481  0.69171200  0.55309899    -0.00800
H469        H  0.28166886  0.72604462  0.59610603     0.00700
H470        H  0.29694144  0.85669645  0.39193752     0.04300
H471        H  0.33042856  0.90072899  0.42388503     0.06300
H472        H  0.26630199  0.89851511  0.43083773     0.07100
C473        C  0.76762061  0.53046756  0.30451941    -0.22500
C474        C  0.77484916  0.50128222  0.26416740     0.09500
C475        C  0.81759825  0.47462761  0.25990794     0.09900
C476        C  0.85163910  0.47669149  0.29692235    -0.17400
C477        C  0.84437686  0.50550490  0.33773494    -0.27800
C478        C  0.80223897  0.53385253  0.34091927     0.18200
C479        C  0.73757451  0.50041425  0.22627900     0.12200
C480        C  0.82742964  0.44424292  0.21624575    -0.12200
H481        H  0.88391508  0.45518371  0.29422609     0.12500
C482        C  0.79335443  0.56976877  0.38055165    -0.23000
H483        H  0.73513192  0.55168877  0.30703845     0.08100
C484        C  0.70089726  0.46556204  0.22614875     0.04400
C485        C  0.66545697  0.46723894  0.19040225    -0.20200
C486        C  0.66550937  0.50332615  0.15516604    -0.12500
C487        C  0.70172388  0.53900253  0.15611345     0.13200
C488        C  0.73768054  0.53658235  0.19129856    -0.23000
C489        C  0.69874973  0.42712590  0.26415589    -0.06000
H490        H  0.63753364  0.44016453  0.18986847     0.14700
C491        C  0.70252998  0.58130785  0.12229176    -0.16200
H492        H  0.76543716  0.56382787  0.19218917     0.09000
H493        H  0.76283062  0.55761636  0.40305528     0.06900
H494        H  0.78427098  0.60516880  0.36460837     0.08100
H495        H  0.82493584  0.57588874  0.40373413     0.07100
H496        H  0.82686023  0.46708140  0.18359014     0.02000
H497        H  0.79979662  0.41584785  0.21276784     0.02500
H498        H  0.86302405  0.42652192  0.21832227     0.06000
H499        H  0.66748327  0.40298802  0.25899757     0.05000
H500        H  0.69565431  0.44398699  0.30016247    -0.00800
H501        H  0.73166872  0.40486285  0.26302238     0.00700
H502        H  0.70283379  0.61515033  0.14342801     0.04300
H503        H  0.67100220  0.58290133  0.09823118     0.06300
H504        H  0.73542282  0.57987632  0.09989730     0.07100
C505        C  0.24736858  0.47591524  0.31927097    -0.22500
C506        C  0.23864706  0.49616690  0.27415809     0.09500
C507        C  0.19292634  0.51487221  0.26361104     0.09900
C508        C  0.15717767  0.51412611  0.29908056    -0.17400
C509        C  0.16586254  0.49498460  0.34503378    -0.27800
C510        C  0.21164584  0.47464409  0.35481141     0.18200
C511        C  0.27762559  0.49631731  0.23800183     0.12200
C512        C  0.18199501  0.53589500  0.21497928    -0.12200
H513        H  0.12227496  0.52888893  0.29081103     0.12500
C514        C  0.22293907  0.44945461  0.40143553    -0.23000
H515        H  0.28236611  0.46063661  0.32647955     0.08100
C516        C  0.31550006  0.52987613  0.24002992     0.04400
C517        C  0.35060941  0.52954906  0.20390643    -0.20200
C518        C  0.34866287  0.49636386  0.16600547    -0.12500
C519        C  0.31217494  0.46100560  0.16556520     0.13200
C520        C  0.27666566  0.46200563  0.20118686    -0.23000
C521        C  0.31824853  0.56665770  0.27961814    -0.06000
H522        H  0.37908175  0.55603929  0.20459022     0.14700
C523        C  0.31063680  0.42061343  0.12943180    -0.16200
H524        H  0.24826631  0.43542472  0.20062342     0.09000
H525        H  0.22308073  0.47544958  0.43162982     0.06900
H526        H  0.25883734  0.43222031  0.40067403     0.08100
H527        H  0.19607752  0.42079668  0.40810710     0.07100
H528        H  0.18602340  0.50788195  0.18689472     0.02000
H529        H  0.20704068  0.56590750  0.20729383     0.02500
H530        H  0.14482376  0.54999815  0.21301836     0.06000
H531        H  0.34988174  0.59047234  0.27543451     0.05000
H532        H  0.32117037  0.54842025  0.31492668    -0.00800
H533        H  0.28555364  0.58935658  0.27922699     0.00700
H534        H  0.30886543  0.38568238  0.14857560     0.04300
H535        H  0.34277244  0.41922003  0.10617779     0.06300
H536        H  0.27835532  0.42431171  0.10645768     0.07100
C537        C  0.23080976  0.53938164  0.69840781    -0.22500
C538        C  0.22565538  0.50833246  0.73765379     0.09500
C539        C  0.18441930  0.47934120  0.74134938     0.09900
C540        C  0.15030737  0.48022189  0.70434925    -0.17400
C541        C  0.15599012  0.51012528  0.66408888    -0.27800
C542        C  0.19590189  0.54167465  0.66214432     0.18200
C543        C  0.26361994  0.50724891  0.77484202     0.12200
C544        C  0.17638872  0.44767135  0.78444891    -0.12200
H545        H  0.11929234  0.45687324  0.70656934     0.12500
C546        C  0.20169368  0.58005259  0.62433898    -0.23000
H547        H  0.26188694  0.56270049  0.69658469     0.08100
C548        C  0.30135607  0.47362671  0.77278220     0.04400
C549        C  0.33653227  0.47389916  0.80878129    -0.20200
C550        C  0.33547123  0.50767951  0.84624294    -0.12500
C551        C  0.29849173  0.54258953  0.84722554     0.13200
C552        C  0.26252002  0.54124541  0.81195991    -0.23000
C553        C  0.30502495  0.43813580  0.73207976    -0.06000
H554        H  0.36514096  0.44758276  0.80767215     0.14700
C555        C  0.29693400  0.58312012  0.88318526    -0.16200
H556        H  0.23398002  0.56766080  0.81272515     0.09000
H557        H  0.23458918  0.57313350  0.60299847     0.06900
H558        H  0.20516392  0.61559864  0.64213691     0.08100
H559        H  0.17077533  0.58272879  0.59965095     0.07100
H560        H  0.17539512  0.47000770  0.81747765     0.02000
H561        H  0.20582089  0.42109540  0.78757593     0.02500
H562        H  0.14201526  0.42772600  0.78192133     0.06000
H563        H  0.33698983  0.41466575  0.73577622     0.05000
H564        H  0.30797343  0.45771644  0.69747810    -0.00800
H565        H  0.27276628  0.41488157  0.73117841     0.00700
H566        H  0.29529022  0.61794743  0.86383287     0.04300
H567        H  0.32885617  0.58467577  0.90667958     0.06300
H568        H  0.26450435  0.57954129  0.90600629     0.07100
C569        C  0.76389939  0.46660422  0.69097896    -0.22500
C570        C  0.76629423  0.49951769  0.72885338     0.09500
C571        C  0.80621873  0.53030426  0.73285937     0.09900
C572        C  0.84175392  0.52921549  0.69712258    -0.17400
C573        C  0.83895880  0.49691089  0.65838375    -0.27800
C574        C  0.80036902  0.46384572  0.65647736     0.18200
C575        C  0.72784317  0.49871133  0.76540175     0.12200
C576        C  0.81156140  0.56367708  0.77511045    -0.12200
H577        H  0.87179835  0.55380348  0.69934283     0.12500
C578        C  0.79751903  0.42342733  0.62059570    -0.23000
H579        H  0.73399604  0.44177698  0.68923043     0.08100
C580        C  0.68672077  0.52785216  0.76129625     0.04400
C581        C  0.65089683  0.52491163  0.79656249    -0.20200
C582        C  0.65500300  0.49297017  0.83536828    -0.12500
C583        C  0.69524950  0.46196076  0.83793109     0.13200
C584        C  0.73155173  0.46600014  0.80336348    -0.23000
C585        C  0.68059076  0.56179165  0.71965311    -0.06000
H586        H  0.61991982  0.54829070  0.79429792     0.14700
C587        C  0.70024341  0.42270241  0.87495473    -0.16200
H588        H  0.76255003  0.44259392  0.80533082     0.09000
H589        H  0.76561277  0.42855948  0.59738206     0.06900
H590        H  0.79381277  0.38876297  0.63998434     0.08100
H591        H  0.82980170  0.42027296  0.59773354     0.07100
H592        H  0.81237720  0.54251906  0.80889714     0.02000
H593        H  0.78095250  0.58906582  0.77638764     0.02500
H594        H  0.84519993  0.58490354  0.77297508     0.06000
H595        H  0.64643297  0.58213202  0.72211469     0.05000
H596        H  0.68039235  0.54120820  0.68549350    -0.00800
H597        H  0.71052020  0.58801613  0.71894007     0.00700
H598        H  0.70703219  0.38794117  0.85658078     0.04300
H599        H  0.66762239  0.41759866  0.89698558     0.06300
H600        H  0.73095971  0.43073550  0.89897823     0.07100
C601        C  0.76929445  0.80845041  0.95511941    -0.22500
C602        C  0.77320561  0.76837057  0.98524609     0.09500
C603        C  0.81340038  0.76370339  0.01553144     0.09900
C604        C  0.84852197  0.79975351  0.01556245    -0.17400
C605        C  0.84417003  0.84072500  0.98648736    -0.27800
C606        C  0.80468519  0.84430157  0.95455303     0.18200
C607        C  0.73471783  0.73168431  0.98467129     0.12200
C608        C  0.81861396  0.72119007  0.04855026    -0.12200
H609        H  0.87914978  0.79638124  0.03912350     0.12500
C610        C  0.79969054  0.88365194  0.91763637    -0.23000
H611        H  0.73875246  0.81131696  0.93122441     0.08100
C612        C  0.69195149  0.73842295  0.01067781     0.04400
C613        C  0.65697057  0.70234467  0.01020850    -0.20200
C614        C  0.66405249  0.65886978  0.98555649    -0.12500
C615        C  0.70668662  0.65264568  0.95837076     0.13200
C616        C  0.74140433  0.68931634  0.95827432    -0.23000
C617        C  0.68365819  0.78326218  0.03981780    -0.06000
H618        H  0.62415640  0.70788084  0.03006382     0.14700
C619        C  0.71532666  0.60849428  0.92814137    -0.16200
H620        H  0.77419619  0.68484375  0.93786655     0.09000
H621        H  0.76777158  0.90592585  0.92601295     0.06900
H622        H  0.79490337  0.86738716  0.88151582     0.08100
H623        H  0.83152848  0.90716076  0.91514796     0.07100
H624        H  0.81996092  0.68755846  0.02718842     0.02000
H625        H  0.78761850  0.71965392  0.07352348     0.02500
H626        H  0.85188194  0.72336359  0.07031315     0.06000
H627        H  0.64869216  0.78229658  0.05887085     0.05000
H628        H  0.68389615  0.81514894  0.01593015    -0.00800
H629        H  0.71238564  0.78708393  0.06713190     0.00700
H630        H  0.74876001  0.61158490  0.90668640     0.04300
H631        H  0.68509718  0.60327000  0.90273014     0.06300
H632        H  0.71907885  0.57638610  0.95138562     0.07100
C633        C  0.73439695  0.30652541  0.02243811    -0.22500
C634        C  0.73122535  0.27032147  0.98771988     0.09500
C635        C  0.69148993  0.26876164  0.95648526     0.09900
C636        C  0.65563040  0.30389300  0.96067211    -0.17400
C637        C  0.65879628  0.34036588  0.99542869    -0.27800
C638        C  0.69842368  0.34124777  0.02726161     0.18200
C639        C  0.76845645  0.23256173  0.98732901     0.12200
C640        C  0.68709643  0.23006917  0.91890993    -0.12200
H641        H  0.62533980  0.30331871  0.93629839     0.12500
C642        C  0.70322726  0.37670958  0.06802901    -0.23000
H643        H  0.76463858  0.30685011  0.04689109     0.08100
C644        C  0.81213360  0.23858720  0.96269876     0.04400
C645        C  0.84710565  0.20238333  0.96533917    -0.20200
C646        C  0.83942925  0.16038243  0.99238171    -0.12500
C647        C  0.79567414  0.15513002  0.01791591     0.13200
C648        C  0.76077803  0.19125050  0.01479941    -0.23000
C649        C  0.82177629  0.28337868  0.93401809    -0.06000
H650        H  0.88052134  0.20682876  0.94600392     0.14700
C651        C  0.78609391  0.11280132  0.05027622    -0.16200
H652        H  0.72740306  0.18763922  0.03443066     0.09000
H653        H  0.73469183  0.40024937  0.06158417     0.06900
H654        H  0.70877860  0.35696820  0.10223283     0.08100
H655        H  0.67111943  0.39946170  0.07317361     0.07100
H656        H  0.68640566  0.19427138  0.93642175     0.02000
H657        H  0.71812790  0.23183645  0.89400818     0.02500
H658        H  0.65377547  0.23401602  0.89746016     0.06000
H659        H  0.85806607  0.28287907  0.91781325     0.05000
H660        H  0.81940429  0.31537498  0.95769546    -0.00800
H661        H  0.79499938  0.28670991  0.90473156     0.00700
H662        H  0.75218735  0.11711999  0.07074828     0.04300
H663        H  0.81566639  0.10901088  0.07668450     0.06300
H664        H  0.78277743  0.07948052  0.02868960     0.07100
C665        C  0.30915605  0.73832082  0.96643618    -0.22500
C666        C  0.27369715  0.73699330  0.00209178     0.09500
C667        C  0.27386441  0.69960697  0.03624103     0.09900
C668        C  0.31008387  0.66473759  0.03444573    -0.17400
C669        C  0.34578985  0.66588876  0.99894453    -0.27800
C670        C  0.34489638  0.70287064  0.96390131     0.18200
C671        C  0.23592164  0.77436766  0.00209197     0.12200
C672        C  0.23553346  0.69608889  0.07420633    -0.12200
H673        H  0.31064075  0.63635309  0.06107483     0.12500
C674        C  0.37930267  0.70499434  0.92214263    -0.23000
H675        H  0.30828832  0.76668361  0.93976370     0.08100
C676        C  0.24022751  0.81644398  0.02996015     0.04400
C677        C  0.20348223  0.85082405  0.02865998    -0.20200
C678        C  0.16254473  0.84417156  0.00003211    -0.12500
C679        C  0.15900443  0.80245027  0.97097626     0.13200
C680        C  0.19567749  0.76794396  0.97272338    -0.23000
C681        C  0.28382380  0.82528500  0.06062567    -0.06000
H682        H  0.20654987  0.88291765  0.05049447     0.14700
C683        C  0.11798208  0.79496028  0.93644014    -0.16200
H684        H  0.19320054  0.73584011  0.95082151     0.09000
H685        H  0.40191433  0.73766512  0.92511616     0.06900
H686        H  0.35881290  0.70667352  0.88798578     0.08100
H687        H  0.40293237  0.67320595  0.91973594     0.07100
H688        H  0.19990477  0.69245791  0.05687554     0.02000
H689        H  0.23569047  0.72874023  0.09701292     0.02500
H690        H  0.24105216  0.66451025  0.09793333     0.06000
H691        H  0.28181133  0.86038931  0.07947850     0.05000
H692        H  0.31641632  0.82533874  0.03775584    -0.00800
H693        H  0.28726023  0.79672562  0.08814963     0.00700
H694        H  0.12313236  0.76227936  0.91414877     0.04300
H695        H  0.11517513  0.82618841  0.91178481     0.06300
H696        H  0.08385730  0.79037969  0.95634142     0.07100
C697        C  0.30850648  0.26796329  0.03916514    -0.22500
C698        C  0.26766037  0.27419731  0.01062698     0.09500
C699        C  0.26132923  0.31738979  0.98499636     0.09900
C700        C  0.29735164  0.35244852  0.98647828    -0.17400
C701        C  0.33919255  0.34571689  0.01367154    -0.27800
C702        C  0.34390623  0.30364750  0.04202911     0.18200
C703        C  0.23124539  0.23557545  0.00931198     0.12200
C704        C  0.21664791  0.32646000  0.95603640    -0.12200
H705        H  0.29326685  0.38489845  0.96537664     0.12500
C706        C  0.38426108  0.29586245  0.07723202    -0.23000
H707        H  0.31235801  0.23530411  0.06000922     0.08100
C708        C  0.23102657  0.20045266  0.97276651     0.04400
C709        C  0.19509546  0.16512761  0.97273614    -0.20200
C710        C  0.15974812  0.16394732  0.00864504    -0.12500
C711        C  0.16129438  0.19812663  0.04631394     0.13200
C712        C  0.19681310  0.23376103  0.04584062    -0.23000
C713        C  0.26907274  0.19985539  0.93433493    -0.06000
H714        H  0.19434257  0.13846162  0.94435478     0.14700
C715        C  0.12722297  0.19754753  0.08827716    -0.16200
H716        H  0.19788790  0.26022199  0.07441816     0.09000
H717        H  0.40657743  0.26504078  0.06540976     0.06900
H718        H  0.36915789  0.28770868  0.11323846     0.08100
H719        H  0.40736199  0.32778587  0.08183587     0.07100
H720        H  0.18478182  0.32493680  0.97986475     0.02000
H721        H  0.21296824  0.29890839  0.92750568     0.02500
H722        H  0.21737178  0.36229935  0.93854669     0.06000
H723        H  0.26378844  0.16971487  0.90872995     0.05000
H724        H  0.30489557  0.19569180  0.95115385    -0.00800
H725        H  0.26832203  0.23387547  0.91365782     0.00700
H726        H  0.14783882  0.19475449  0.12225097     0.04300
H727        H  0.10172478  0.16710110  0.08740693     0.06300
H728        H  0.10669179  0.23164750  0.08879229     0.07100
C729        C  0.69558546  0.96834726  0.73626837    -0.22500
C730        C  0.73691936  0.99584108  0.72866717     0.09500
C731        C  0.74244200  0.02139646  0.68536977     0.09900
C732        C  0.70610593  0.01928971  0.65063456    -0.17400
C733        C  0.66366591  0.99329749  0.65859127    -0.27800
C734        C  0.65871759  0.96673504  0.70188649     0.18200
C735        C  0.77434496  0.99695539  0.76632091     0.12200
C736        C  0.78645686  0.05134479  0.67613973    -0.12200
H737        H  0.71049432  0.03888342  0.61739042     0.12500
C738        C  0.61578006  0.93523327  0.71157098    -0.23000
H739        H  0.69215721  0.94825200  0.76943722     0.08100
C740        C  0.77266305  0.03042484  0.80429783     0.04400
C741        C  0.80933110  0.03054932  0.83869021    -0.20200
C742        C  0.84730619  0.99758049  0.83632952    -0.12500
C743        C  0.84802892  0.96283178  0.79907765     0.13200
C744        C  0.81184420  0.96359617  0.76410200    -0.23000
C745        C  0.73207631  0.06579376  0.80863346    -0.06000
H746        H  0.80842253  0.05662412  0.86762117     0.14700
C747        C  0.88448193  0.92289484  0.79621724    -0.16200
H748        H  0.81230170  0.93731209  0.73535061     0.09000
H749        H  0.58302531  0.95743815  0.71547490     0.06900
H750        H  0.61997815  0.91440980  0.74533577     0.08100
H751        H  0.61105002  0.90920605  0.68170637     0.07100
H752        H  0.81887734  0.02829257  0.67733064     0.02000
H753        H  0.78951241  0.07975936  0.70395273     0.02500
H754        H  0.78513963  0.06904166  0.64043312     0.06000
H755        H  0.73628013  0.08938678  0.84054619     0.05000
H756        H  0.69763306  0.04617334  0.81223802    -0.00800
H757        H  0.73071760  0.08888220  0.77618825     0.00700
H758        H  0.86563635  0.88776071  0.79583396     0.04300
H759        H  0.90952731  0.92206772  0.82697584     0.06300
H760        H  0.90556992  0.92641436  0.76257731     0.07100
C761        C  0.24619569  0.97267871  0.81742056    -0.22500
C762        C  0.23874952  0.99710352  0.77413842     0.09500
C763        C  0.19477059  0.02036103  0.76568909     0.09900
C764        C  0.15928494  0.01939091  0.80122926    -0.17400
C765        C  0.16655596  0.99561631  0.84512381    -0.27800
C766        C  0.21028059  0.97055991  0.85267623     0.18200
C767        C  0.27689942  0.99677187  0.73734609     0.12200
C768        C  0.18547052  0.04653707  0.71928335    -0.12200
H769        H  0.12576978  0.03778417  0.79478284     0.12500
C770        C  0.21969729  0.93929652  0.89590701    -0.23000
H771        H  0.27983599  0.95403864  0.82312926     0.08100
C772        C  0.31449114  0.03055743  0.73816224     0.04400
C773        C  0.34875160  0.02998120  0.70128198    -0.20200
C774        C  0.34617870  0.99627954  0.66380658    -0.12500
C775        C  0.30942162  0.96117576  0.66417315     0.13200
C776        C  0.27479160  0.96244962  0.70062524    -0.23000
C777        C  0.31789206  0.06755686  0.77751469    -0.06000
H778        H  0.37725193  0.05644862  0.70123578     0.14700
C779        C  0.30668591  0.92061068  0.62828093    -0.16200
H780        H  0.24618648  0.93608098  0.70078858     0.09000
H781        H  0.24576871  0.95731018  0.92003914     0.06900
H782        H  0.23502800  0.90439998  0.88415377     0.08100
H783        H  0.18678993  0.93031817  0.91613857     0.07100
H784        H  0.18765201  0.02101779  0.68872282     0.02000
H785        H  0.21256460  0.07530694  0.71433529     0.02500
H786        H  0.14939384  0.06337067  0.71879937     0.06000
H787        H  0.34939424  0.09144665  0.77263900     0.05000
H788        H  0.32139345  0.04941576  0.81283701    -0.00800
H789        H  0.28513660  0.09017901  0.77765813     0.00700
H790        H  0.30573063  0.88580416  0.64771588     0.04300
H791        H  0.33781175  0.91905580  0.60369134     0.06300
H792        H  0.27349758  0.92409843  0.60659146     0.07100
C793        C  0.22846595  0.04520444  0.19928660    -0.22500
C794        C  0.22814343  0.00966096  0.23484339     0.09500
C795        C  0.19107076  0.97522637  0.23567630     0.09900
C796        C  0.15570165  0.97629858  0.19992626    -0.17400
C797        C  0.15665260  0.01106926  0.16349471    -0.27800
C798        C  0.19288863  0.04671954  0.16377458     0.18200
C799        C  0.26697444  0.00906791  0.27100161     0.12200
C800        C  0.18939471  0.93691206  0.27380086    -0.12200
H801        H  0.12773584  0.94925576  0.19978796     0.12500
C802        C  0.19432802  0.08779419  0.12850123    -0.23000
H803        H  0.25651306  0.07216397  0.19949605     0.08100
C804        C  0.31211823  0.98889671  0.26076400     0.04400
C805        C  0.34728473  0.98776461  0.29679051    -0.20200
C806        C  0.33812434  0.00554436  0.34328162    -0.12500
C807        C  0.29251025  0.02623137  0.35306904     0.13200
C808        C  0.25787850  0.02802000  0.31658411    -0.23000
C809        C  0.32282718  0.96803242  0.21198126    -0.06000
H810        H  0.38193636  0.97230586  0.28863466     0.14700
C811        C  0.27963285  0.04710724  0.40138966    -0.16200
H812        H  0.22302593  0.04365326  0.32378113     0.09000
H813        H  0.22750760  0.08555496  0.10660629     0.06900
H814        H  0.19446220  0.12228887  0.14850385     0.08100
H815        H  0.16309706  0.08864255  0.10403936     0.07100
H816        H  0.18579116  0.95376733  0.30975323     0.02000
H817        H  0.22282995  0.91533670  0.27268993     0.02500
H818        H  0.15857562  0.91223457  0.26859841     0.06000
H819        H  0.35957463  0.95284032  0.21014289     0.05000
H820        H  0.31975724  0.99642043  0.18417923    -0.00800
H821        H  0.29697771  0.93882901  0.20381104     0.00700
H822        H  0.24409616  0.06504618  0.40088821     0.04300
H823        H  0.30657199  0.07427715  0.41219276     0.06300
H824        H  0.27785010  0.01815309  0.42869812     0.07100
C825        C  0.80969983  0.97085735  0.23713194    -0.22500
C826        C  0.76541261  0.99239143  0.22751099     0.09500
C827        C  0.75691444  0.01262350  0.18192435     0.09900
C828        C  0.79373173  0.01276901  0.14752919    -0.17400
C829        C  0.83900227  0.99284832  0.15740788    -0.27800
C830        C  0.84645514  0.97015022  0.20257287     0.18200
C831        C  0.72818417  0.99311536  0.26557995     0.12200
C832        C  0.70871906  0.03353143  0.16947847    -0.12200
H833        H  0.78713488  0.02898720  0.11284154     0.12500
C834        C  0.89195896  0.94327712  0.21423429    -0.23000
H835        H  0.81540470  0.95438401  0.27193496     0.08100
C836        C  0.69877175  0.95286314  0.27452993     0.04400
C837        C  0.66333632  0.95564546  0.31026242    -0.20200
C838        C  0.65712971  0.99757891  0.33748878    -0.12500
C839        C  0.68606697  0.03818696  0.32804167     0.13200
C840        C  0.72153596  0.03527488  0.29238024    -0.23000
C841        C  0.70466143  0.90716916  0.24619391    -0.06000
H842        H  0.64074796  0.92478583  0.31744604     0.14700
C843        C  0.67952392  0.08543435  0.35381195    -0.16200
H844        H  0.74382918  0.06630467  0.28500104     0.09000
H845        H  0.89931974  0.91617687  0.18590237     0.06900
H846        H  0.88924229  0.92391596  0.24900654     0.08100
H847        H  0.92253310  0.96854628  0.21719681     0.07100
H848        H  0.70040014  0.06392612  0.19388953     0.02000
H849        H  0.68064789  0.00552589  0.17334056     0.02500
H850        H  0.70769060  0.04705688  0.13197479     0.06000
H851        H  0.67829510  0.87941203  0.25726637     0.05000
H852        H  0.74116409  0.89240398  0.25186128    -0.00800
H853        H  0.69939862  0.91458020  0.20737748     0.00700
H854        H  0.71291857  0.09481176  0.37332477     0.04300
H855        H  0.64965439  0.08502954  0.38005117     0.06300
H856        H  0.67170997  0.11406387  0.32719093     0.07100
C857        C  0.02990369  0.19915286  0.76689903    -0.22500
C858        C  0.99494687  0.23496789  0.77064206     0.09500
C859        C  0.96310787  0.23509340  0.80991018     0.09900
C860        C  0.96653370  0.19866974  0.84446934    -0.17400
C861        C  0.00143920  0.16252370  0.84074484    -0.27800
C862        C  0.03428887  0.16340479  0.80196406     0.18200
C863        C  0.99372820  0.27305231  0.73383291     0.12200
C864        C  0.92613882  0.27403361  0.81558326    -0.12200
H865        H  0.94169900  0.19823219  0.87442788     0.12500
C866        C  0.07572593  0.12900927  0.79733828    -0.23000
H867        H  0.05481788  0.19992003  0.73699986     0.08100
C868        C  0.02577925  0.31211403  0.73564422     0.04400
C869        C  0.02433994  0.34676321  0.69925319    -0.20200
C870        C  0.99180184  0.34303200  0.66097942    -0.12500
C871        C  0.95867504  0.30444419  0.65995966     0.13200
C872        C  0.96048988  0.26963720  0.69630583    -0.23000
C873        C  0.06147350  0.31715600  0.77593865    -0.06000
H874        H  0.04943546  0.37648695  0.70015384     0.14700
C875        C  0.91995684  0.29950082  0.62243629    -0.16200
H876        H  0.93556289  0.23976168  0.69560893     0.09000
H877        H  0.10973239  0.14960966  0.79505101     0.06900
H878        H  0.07155270  0.10744339  0.76405175     0.08100
H879        H  0.07926397  0.10437137  0.82827230     0.07100
H880        H  0.90168487  0.27410360  0.78416319     0.02000
H881        H  0.94415896  0.30948124  0.81828998     0.02500
H882        H  0.90422308  0.26870741  0.84836438     0.06000
H883        H  0.08348893  0.35016465  0.77210620     0.05000
H884        H  0.08606321  0.28583765  0.77617596    -0.00800
H885        H  0.04231106  0.31903978  0.81084242     0.00700
H886        H  0.92586506  0.26615163  0.60137582     0.04300
H887        H  0.91811154  0.33022127  0.59733069     0.06300
H888        H  0.88448857  0.29720019  0.64039017     0.07100
C889        C  0.03670829  0.80892602  0.76430144    -0.22500
C890        C  0.00527991  0.77003182  0.76923590     0.09500
C891        C  0.97596087  0.76659772  0.81036128     0.09900
C892        C  0.97793718  0.80295724  0.84524358    -0.17400
C893        C  0.00864560  0.84262571  0.84000319    -0.27800
C894        C  0.03900220  0.84525097  0.79924981     0.18200
C895        C  0.00429250  0.73299565  0.73104485     0.12200
C896        C  0.94247160  0.72473546  0.81726237    -0.12200
H897        H  0.95482928  0.80076485  0.87647992     0.12500
C898        C  0.07511854  0.88508441  0.79312604    -0.23000
H899        H  0.05960034  0.81073582  0.73288538     0.08100
C900        C  0.97497840  0.73798006  0.69008528     0.04400
C901        C  0.97557483  0.70204925  0.65468712    -0.20200
C902        C  0.00492744  0.66133056  0.65929580    -0.12500
C903        C  0.03544722  0.65719593  0.69980926     0.13200
C904        C  0.03434277  0.69297025  0.73536702    -0.23000
C905        C  0.94296865  0.78109397  0.68392822    -0.06000
H906        H  0.95249595  0.70542328  0.62356009     0.14700
C907        C  0.07076692  0.61646143  0.70486724    -0.16200
H908        H  0.05733835  0.69001242  0.76659773     0.09000
H909        H  0.05659678  0.91998374  0.78836134     0.06900
H910        H  0.09809033  0.87932073  0.76104058     0.08100
H911        H  0.09885589  0.88680238  0.82509351     0.07100
H912        H  0.96328695  0.69078527  0.81832832     0.02000
H913        H  0.91650505  0.72315244  0.78711776     0.02500
H914        H  0.92192426  0.72774559  0.85131656     0.06000
H915        H  0.92215571  0.77924617  0.64997743     0.05000
H916        H  0.96496569  0.81430408  0.68315728    -0.00800
H917        H  0.91723486  0.78321720  0.71426667     0.00700
H918        H  0.09461467  0.61525584  0.67293445     0.04300
H919        H  0.05165158  0.58176276  0.70859865     0.06300
H920        H  0.09371110  0.62080075  0.73717013     0.07100
C921        C  0.02916235  0.69505047  0.26262023    -0.22500
C922        C  0.00264513  0.73683564  0.27137298     0.09500
C923        C  0.97592326  0.74091278  0.31416584     0.09900
C924        C  0.97639363  0.70299151  0.34739568    -0.17400
C925        C  0.00270805  0.66073904  0.33880333    -0.27800
C926        C  0.02957774  0.65688629  0.29565401     0.18200
C927        C  0.00197271  0.77501299  0.23423659     0.12200
C928        C  0.94711224  0.78538399  0.32484916    -0.12200
H929        H  0.95569178  0.70624492  0.38018708     0.12500
C930        C  0.06010313  0.61362192  0.28468778    -0.23000
H931        H  0.04950331  0.69229368  0.22954755     0.08100
C932        C  0.04008004  0.80794237  0.22902201     0.04400
C933        C  0.03821734  0.84231521  0.19216485    -0.20200
C934        C  0.99898383  0.84457777  0.16071771    -0.12500
C935        C  0.96012945  0.81258331  0.16700245     0.13200
C936        C  0.96247388  0.77779180  0.20331474    -0.23000
C937        C  0.08220986  0.80723696  0.26276856    -0.06000
H938        H  0.06756167  0.86746770  0.18772372     0.14700
C939        C  0.91497187  0.81508325  0.13747453    -0.16200
H940        H  0.93297938  0.75285416  0.20790020     0.09000
H941        H  0.08100037  0.61833752  0.25105169     0.06900
H942        H  0.03718761  0.58141427  0.27993086     0.08100
H943        H  0.08591260  0.60762418  0.31442159     0.07100
H944        H  0.91938303  0.79056918  0.29676810     0.02000
H945        H  0.97111085  0.81717486  0.32558722     0.02500
H946        H  0.92871909  0.78293011  0.36013534     0.06000
H947        H  0.10869811  0.83562056  0.25380401     0.05000
H948        H  0.10060939  0.77197546  0.26070185    -0.00800
H949        H  0.06961488  0.81332689  0.30011261     0.00700
H950        H  0.90974190  0.78044599  0.11848465     0.04300
H951        H  0.91532449  0.84437644  0.11057559     0.06300
H952        H  0.88386600  0.82132767  0.16157592     0.07100
C953        C  0.96690882  0.19144053  0.23816768    -0.22500
C954        C  0.99018024  0.23513151  0.22979513     0.09500
C955        C  0.01196563  0.24398905  0.18506667     0.09900
C956        C  0.01110988  0.20813494  0.14982185    -0.17400
C957        C  0.98998150  0.16317265  0.15866754    -0.27800
C958        C  0.96608283  0.15533608  0.20300225     0.18200
C959        C  0.99180934  0.27119615  0.26851005     0.12200
C960        C  0.03665700  0.29104604  0.17487985    -0.12200
H961        H  0.02775927  0.21504133  0.11543349     0.12500
C962        C  0.93789008  0.11016582  0.21295277    -0.23000
H963        H  0.94942992  0.18562696  0.27245858     0.08100
C964        C  0.95662567  0.30729936  0.27232365     0.04400
C965        C  0.96092262  0.34201541  0.30849016    -0.20200
C966        C  0.99951705  0.34118165  0.34074555    -0.12500
C967        C  0.03510745  0.30537770  0.33645062     0.13200
C968        C  0.03048498  0.27032301  0.30057833    -0.23000
C969        C  0.91462317  0.30904695  0.23836640    -0.06000
H970        H  0.93387466  0.36976106  0.31189826     0.14700
C971        C  0.07902024  0.30554546  0.36792817    -0.16200
H972        H  0.05762998  0.24273422  0.29674348     0.09000
H973        H  0.91796807  0.11252738  0.24740820     0.06900
H974        H  0.96221729  0.07880325  0.21565366     0.08100
H975        H  0.91128968  0.10418717  0.18387810     0.07100
H976        H  0.06625970  0.29658638  0.20091982     0.02000
H977        H  0.01077862  0.32110446  0.17815196     0.02500
H978        H  0.05204380  0.29200815  0.13811051     0.06000
H979        H  0.89030950  0.33951946  0.24665082     0.05000
H980        H  0.89371004  0.27525807  0.24119486    -0.00800
H981        H  0.92738643  0.31330494  0.20086947     0.00700
H982        H  0.06856815  0.30081500  0.40600670     0.04300
H983        H  0.09834314  0.34017267  0.36379548     0.06300
H984        H  0.10411493  0.27609728  0.35834514     0.07100
loop_ 
_geom_bond_atom_site_label_1 
_geom_bond_atom_site_label_2 
_geom_bond_distance 
_geom_bond_site_symmetry_2 
_ccdc_geom_bond_type 
O1          Zr37   2.435       .  S
O1           C12   1.291       .  A
O2          Zr36   2.439       .  S
O2           C13   1.292       .  A
O3           Zr9   2.448   1_554  S
O3           C14   1.294       .  A
O4           Zr9   2.448   1_655  S
O4           C15   1.294       .  A
O5          Zr39   2.438       .  S
O5           C15   1.291       .  A
O6          Zr38   2.437       .  S
O6           C14   1.292       .  A
O7           Zr9   2.426       .  S
O7           C13   1.290       .  A
O8           Zr9   2.430   1_654  S
O8           C12   1.291       .  A
Zr9          O10   2.336   1_455  S
Zr9          O11   2.340   1_556  S
Zr9          O19   2.345   1_456  S
Zr9          O17   2.349       .  S
O10         Zr36   2.339   1_655  S
O10         Zr39   2.341       .  S
O11         Zr37   2.335   1_455  S
O11         Zr38   2.339       .  S
C12         C957   1.482       .  S
C13         C861   1.472       .  S
C14         C710   1.477       .  S
C15         C646   1.487       .  S
H16          O17   0.963       .  S
O17         Zr36   2.343       .  S
O17         Zr38   2.346   1_556  S
H18          O19   0.967       .  S
O19         Zr37   2.341       .  S
O19         Zr39   2.338   1_554  S
O20         Zr36   2.438   1_565  S
O20          C43   1.291       .  A
O21         Zr37   2.431   1_465  S
O21          C44   1.290   1_455  A
O22         Zr38   2.432   1_556  S
O22          C45   1.291   1_545  A
O23         Zr39   2.435       .  S
O23          C46   1.292   1_545  A
O24         Zr39   2.454   1_564  S
O24          C47   1.296       .  A
O25         Zr38   2.432       .  S
O25          C48   1.291       .  A
O26         Zr40   2.432   1_556  S
O26          C49   1.291   1_556  A
O27         Zr40   2.442   1_656  S
O27          C50   1.293       .  A
O28         Zr38   2.443   1_565  S
O28          C49   1.293       .  A
O29         Zr39   2.440   1_565  S
O29          C50   1.293       .  A
O30         Zr36   2.441   1_565  S
O30          C45   1.293       .  A
O31         Zr37   2.438   1_455  S
O31          C48   1.292       .  A
O32         Zr37   2.433   1_565  S
O32          C47   1.290       .  A
O33         Zr36   2.436   1_655  S
O33          C46   1.292   1_545  A
O34         Zr40   2.442   1_556  S
O34          C43   1.293       .  A
O35         Zr40   2.445   1_655  S
O35          C44   1.294       .  A
Zr36         O42   2.334   1_545  S
Zr36         O54   2.339   1_445  S
Zr37         O41   2.341   1_545  S
Zr37         O52   2.340   1_645  S
Zr38         O42   2.336   1_544  S
Zr38         O52   2.341   1_545  S
Zr39         O41   2.338   1_546  S
Zr39         O54   2.340   1_545  S
Zr40         O41   2.338   1_455  S
Zr40         O42   2.339   1_554  S
Zr40         O54   2.335   1_454  S
Zr40         O52   2.346       .  S
C43         C893   1.482       .  S
C44         C934   1.472       .  S
C45         C765   1.483       .  S
C46         C742   1.475       .  S
C47         C829   1.492       .  S
C48         C797   1.473       .  S
C49         C678   1.483       .  S
C50         C605   1.482       .  S
H51          O52   0.965       .  S
H53          O54   0.966       .  S
O55         Zr91   2.433       .  S
O55          C66   1.291       .  A
O56         Zr90   2.430       .  S
O56          C67   1.291       .  A
O57         Zr63   2.434       .  S
O57          C68   1.290       .  A
O58         Zr63   2.437   1_655  S
O58          C69   1.291       .  A
O59         Zr93   2.447       .  S
O59          C69   1.295       .  A
O60         Zr92   2.442       .  S
O60          C68   1.294       .  A
O61         Zr63   2.439   1_655  S
O61          C67   1.292       .  A
O62         Zr63   2.439       .  S
O62          C66   1.292       .  A
Zr63         O64   2.339   1_455  S
Zr63         O65   2.338       .  S
Zr63         O73   2.339   1_455  S
Zr63         O71   2.344       .  S
O64         Zr90   2.340       .  S
O64         Zr93   2.333       .  S
O65         Zr91   2.341       .  S
O65         Zr92   2.337       .  S
C66         C966   1.470   1_455  S
C67         C870   1.473       .  S
C68         C413   1.499       .  S
C69         C349   1.491       .  S
H70          O71   0.966       .  S
O71         Zr90   2.342   1_455  S
O71         Zr92   2.337       .  S
H72          O73   0.965       .  S
O73         Zr91   2.344   1_655  S
O73         Zr93   2.340       .  S
O74         Zr90   2.433   1_455  S
O74          C97   1.291       .  A
O75         Zr91   2.443       .  S
O75          C98   1.292       .  A
O76         Zr92   2.443       .  S
O76          C99   1.293       .  A
O77         Zr93   2.448       .  S
O77         C100   1.294       .  A
O78         Zr93   2.434       .  S
O78         C101   1.292       .  A
O79         Zr92   2.429       .  S
O79         C102   1.289       .  A
O80         Zr94   2.444       .  S
O80         C103   1.294       .  A
O81         Zr94   2.443   1_655  S
O81         C104   1.293       .  A
O82         Zr92   2.422       .  S
O82         C103   1.288       .  A
O83         Zr93   2.431       .  S
O83         C104   1.290       .  A
O84         Zr90   2.436   1_455  S
O84          C99   1.292       .  A
O85         Zr91   2.455       .  S
O85         C102   1.296       .  A
O86         Zr91   2.441   1_655  S
O86         C101   1.293       .  A
O87         Zr90   2.434       .  S
O87         C100   1.291       .  A
O88         Zr94   2.445       .  S
O88          C97   1.294       .  A
O89         Zr94   2.443       .  S
O89          C98   1.293       .  A
Zr90         O96   2.331   1_655  S
Zr90        O108   2.341       .  S
Zr91         O95   2.338   1_455  S
Zr91        O106   2.336       .  S
Zr92         O96   2.333       .  S
Zr92        O106   2.347       .  S
Zr93         O95   2.343       .  S
Zr93        O108   2.345       .  S
Zr94         O95   2.336   1_455  S
Zr94         O96   2.337       .  S
Zr94        O108   2.349   1_455  S
Zr94        O106   2.345       .  S
C97         C902   1.481       .  S
C98         C925   1.490       .  S
C99         C541   1.482       .  S
C100        C573   1.480       .  S
C101        C477   1.480       .  S
C102        C509   1.492       .  S
C103        C445   1.482       .  S
C104        C381   1.476       .  S
H105        O106   0.968       .  S
H107        O108   0.965       .  S
O109       Zr145   2.445       .  S
O109        C120   1.293       .  A
O110       Zr144   2.435       .  S
O110        C121   1.290       .  A
O111       Zr117   2.437       .  S
O111        C122   1.292       .  A
O112       Zr117   2.437   1_545  S
O112        C123   1.291       .  A
O113       Zr147   2.447       .  S
O113        C123   1.294       .  A
O114       Zr146   2.434       .  S
O114        C122   1.291       .  A
O115       Zr117   2.443   1_545  S
O115        C121   1.293       .  A
O116       Zr117   2.437       .  S
O116        C120   1.291       .  A
Zr117       O118   2.337   1_565  S
Zr117       O119   2.340       .  S
Zr117       O127   2.345   1_565  S
Zr117       O125   2.339       .  S
O118       Zr144   2.336       .  S
O118       Zr147   2.339       .  S
O119       Zr145   2.344       .  S
O119       Zr146   2.339       .  S
C120        C838   1.472       .  S
C121        C806   1.492       .  S
C122        C253   1.472       .  S
C123        C221   1.490       .  S
H124        O125   0.966       .  S
O125       Zr144   2.342   1_565  S
O125       Zr146   2.343       .  S
H126        O127   0.965       .  S
O127       Zr145   2.344   1_545  S
O127       Zr147   2.341       .  S
O128       Zr144   2.441   1_565  S
O128        C151   1.293       .  A
O129       Zr145   2.452       .  S
O129        C152   1.295       .  A
O130       Zr146   2.440       .  S
O130        C153   1.292       .  A
O131       Zr147   2.433       .  S
O131        C154   1.290       .  A
O132       Zr147   2.432       .  S
O132        C155   1.291       .  A
O133       Zr146   2.450       .  S
O133        C156   1.295       .  A
O134       Zr148   2.436       .  S
O134        C157   1.292       .  A
O135       Zr148   2.438   1_545  S
O135        C158   1.292       .  A
O136       Zr146   2.438       .  S
O136        C157   1.292       .  A
O137       Zr147   2.444       .  S
O137        C158   1.293       .  A
O138       Zr144   2.446   1_565  S
O138        C153   1.294       .  A
O139       Zr145   2.428       .  S
O139        C156   1.290       .  A
O140       Zr145   2.443   1_545  S
O140        C155   1.293       .  A
O141       Zr144   2.449       .  S
O141        C154   1.293       .  A
O142       Zr148   2.431   1_545  S
O142        C151   1.291   1_545  A
O143       Zr148   2.437       .  S
O143        C152   1.291       .  A
Zr144       O150   2.337   1_545  S
Zr144       O162   2.342       .  S
Zr145       O149   2.338   1_565  S
Zr145       O160   2.344       .  S
Zr146       O150   2.338       .  S
Zr146       O160   2.342       .  S
Zr147       O149   2.344       .  S
Zr147       O162   2.344       .  S
Zr148       O149   2.341   1_565  S
Zr148       O150   2.339       .  S
Zr148       O162   2.344   1_565  S
Zr148       O160   2.341       .  S
C151        C774   1.474       .  S
C152        C733   1.488       .  S
C153        C454   1.479       .  S
C154        C422   1.471       .  S
C155        C358   1.472       .  S
C156        C390   1.481       .  S
C157        C285   1.479       .  S
C158        C317   1.478       .  S
H159        O160   0.966       .  S
H161        O162   0.966       .  S
O163       Zr199   2.437   1_554  S
O163        C174   1.292       .  A
O164       Zr198   2.437       .  S
O164        C175   1.292       .  A
O165       Zr171   2.442       .  S
O165        C176   1.293       .  A
O166       Zr171   2.440   1_556  S
O166        C177   1.293       .  A
O167       Zr201   2.442       .  S
O167        C177   1.293       .  A
O168       Zr200   2.432       .  S
O168        C176   1.291       .  A
O169       Zr171   2.449       .  S
O169        C175   1.294   1_554  A
O170       Zr171   2.435       .  S
O170        C174   1.292       .  A
Zr171       O172   2.334   1_554  S
Zr171       O173   2.335       .  S
Zr171       O181   2.351   1_554  S
Zr171       O179   2.339       .  S
O172       Zr198   2.338       .  S
O172       Zr201   2.337       .  S
O173       Zr199   2.336   1_554  S
O173       Zr200   2.329       .  S
C174        C701   1.479       .  S
C175        C669   1.480       .  S
C176        C518   1.475       .  S
C177        C550   1.479       .  S
H178        O179   0.966       .  S
O179       Zr198   2.347   1_554  S
O179       Zr200   2.347       .  S
H180        O181   0.966       .  S
O181       Zr199   2.345       .  S
O181       Zr201   2.340       .  S
O182       Zr198   2.445       .  S
O182        C205   1.294       .  A
O183       Zr199   2.445       .  S
O183        C206   1.293       .  A
O184       Zr200   2.431       .  S
O184        C207   1.291       .  A
O185       Zr201   2.428       .  S
O185        C208   1.290       .  A
O186       Zr201   2.434       .  S
O186        C209   1.291       .  A
O187       Zr200   2.452       .  S
O187        C210   1.295       .  A
O188       Zr202   2.448   1_554  S
O188        C211   1.294       .  A
O189       Zr202   2.431       .  S
O189        C212   1.291       .  A
O190       Zr200   2.436       .  S
O190        C211   1.292       .  A
O191       Zr201   2.445       .  S
O191        C212   1.294       .  A
O192       Zr198   2.438   1_554  S
O192        C207   1.292       .  A
O193       Zr199   2.428   1_554  S
O193        C210   1.290       .  A
O194       Zr199   2.439       .  S
O194        C209   1.292       .  A
O195       Zr198   2.430       .  S
O195        C208   1.291       .  A
O196       Zr202   2.440       .  S
O196        C205   1.291       .  A
O197       Zr202   2.429       .  S
O197        C206   1.291       .  A
Zr198       O204   2.342   1_556  S
Zr198       O216   2.338       .  S
Zr199       O203   2.331       .  S
Zr199       O214   2.347   1_556  S
Zr200       O204   2.346       .  S
Zr200       O214   2.340       .  S
Zr201       O203   2.336       .  S
Zr201       O216   2.342       .  S
Zr202       O203   2.342       .  S
Zr202       O204   2.337   1_556  S
Zr202       O216   2.340       .  S
Zr202       O214   2.344   1_556  S
C205        C614   1.488       .  S
C206        C637   1.474       .  S
C207        C262   1.474       .  S
C208        C294   1.468       .  S
C209        C326   1.481       .  S
C210        C230   1.478       .  S
C211        C486   1.478       .  S
C212        C582   1.478       .  S
H213        O214   0.966       .  S
H215        O216   0.968       .  S
C217        C218   1.400       .  A
C217        C222   1.406       .  A
C217        H227   1.084       .  S
C218        C223   1.484       .  S
C218        C219   1.410       .  A
C219        C220   1.405       .  A
C219        C224   1.506       .  S
C220        C221   1.407       .  A
C220        H225   1.084       .  S
C221        C222   1.421       .  A
C222        C226   1.509       .  S
C223        C228   1.412       .  A
C223        C232   1.402       .  A
C224        H240   1.110       .  S
C224        H241   1.110       .  S
C224        H242   1.111       .  S
C226        H237   1.111       .  S
C226        H238   1.111       .  S
C226        H239   1.109       .  S
C228        C229   1.404       .  A
C228        C233   1.506       .  S
C229        C230   1.404       .  A
C229        H234   1.084       .  S
C230        C231   1.417       .  A
C231        C232   1.405       .  A
C231        C235   1.508       .  S
C232        H236   1.084       .  S
C233        H243   1.111       .  S
C233        H244   1.110       .  S
C233        H245   1.110       .  S
C235        H246   1.111       .  S
C235        H247   1.107       .  S
C235        H248   1.110       .  S
C249        C250   1.399       .  A
C249        C254   1.401       .  A
C249        H259   1.085       .  S
C250        C255   1.475       .  S
C250        C251   1.409       .  A
C251        C252   1.401       .  A
C251        C256   1.506       .  S
C252        C253   1.404       .  A
C252        H257   1.084       .  S
C253        C254   1.417       .  A
C254        C258   1.507       .  S
C255        C260   1.409       .  A
C255        C264   1.399       .  A
C256        H272   1.110       .  S
C256        H273   1.110       .  S
C256        H274   1.109       .  S
C258        H269   1.111       .  S
C258        H270   1.110       .  S
C258        H271   1.107       .  S
C260        C261   1.401       .  A
C260        C265   1.506       .  S
C261        C262   1.405       .  A
C261        H266   1.085       .  S
C262        C263   1.417       .  A
C263        C264   1.401       .  A
C263        C267   1.506       .  S
C264        H268   1.085       .  S
C265        H275   1.110       .  S
C265        H276   1.110       .  S
C265        H277   1.110       .  S
C267        H278   1.110       .  S
C267        H279   1.106       .  S
C267        H280   1.111       .  S
C281        C282   1.400       .  A
C281        C286   1.403       .  A
C281        H291   1.085       .  S
C282        C287   1.476       .  S
C282        C283   1.409       .  A
C283        C284   1.401       .  A
C283        C288   1.508       .  S
C284        C285   1.405       .  A
C284        H289   1.084       .  S
C285        C286   1.420       .  A
C286        C290   1.509       .  S
C287        C292   1.411       .  A
C287        C296   1.402       .  A
C288        H304   1.110       .  S
C288        H305   1.108       .  S
C288        H306   1.111       .  S
C290        H301   1.110       .  S
C290        H302   1.111       .  S
C290        H303   1.105       .  S
C292        C293   1.400       .  A
C292        C297   1.507       .  S
C293        C294   1.401       .  A
C293        H298   1.085       .  S
C294        C295   1.414       .  A
C295        C296   1.403       .  A
C295        C299   1.509       .  S
C296        H300   1.084       .  S
C297        H307   1.111       .  S
C297        H308   1.110       .  S
C297        H309   1.108       .  S
C299        H310   1.111       .  S
C299        H311   1.110       .  S
C299        H312   1.109       .  S
C313        C314   1.399       .  A
C313        C318   1.401       .  A
C313        H323   1.085       .  S
C314        C319   1.479       .  S
C314        C315   1.411       .  A
C315        C316   1.406       .  A
C315        C320   1.506       .  S
C316        C317   1.406       .  A
C316        H321   1.084       .  S
C317        C318   1.417       .  A
C318        C322   1.509       .  S
C319        C324   1.409       .  A
C319        C328   1.400       .  A
C320        H336   1.110       .  S
C320        H337   1.110       .  S
C320        H338   1.111       .  S
C322        H333   1.110       .  S
C322        H334   1.111       .  S
C322        H335   1.106       .  S
C324        C325   1.404       .  A
C324        C329   1.506       .  S
C325        C326   1.407       .  A
C325        H330   1.084       .  S
C326        C327   1.418       .  A
C327        C328   1.403       .  A
C327        C331   1.509       .  S
C328        H332   1.085       .  S
C329        H339   1.111       .  S
C329        H340   1.110       .  S
C329        H341   1.110       .  S
C331        H342   1.111       .  S
C331        H343   1.107       .  S
C331        H344   1.110       .  S
C345        C346   1.399       .  A
C345        C350   1.406       .  A
C345        H355   1.084       .  S
C346        C351   1.479       .  S
C346        C347   1.408       .  A
C347        C348   1.402       .  A
C347        C352   1.507       .  S
C348        C349   1.407       .  A
C348        H353   1.082       .  S
C349        C350   1.424       .  A
C350        C354   1.509       .  S
C351        C356   1.411       .  A
C351        C360   1.401       .  A
C352        H368   1.110       .  S
C352        H369   1.109       .  S
C352        H370   1.111       .  S
C354        H365   1.111       .  S
C354        H366   1.111       .  S
C354        H367   1.109       .  S
C356        C357   1.404       .  A
C356        C361   1.506       .  S
C357        C358   1.404       .  A
C357        H362   1.085       .  S
C358        C359   1.414       .  A
C359        C360   1.401       .  A
C359        C363   1.507       .  S
C360        H364   1.085       .  S
C361        H371   1.111       .  S
C361        H372   1.110       .  S
C361        H373   1.109       .  S
C363        H374   1.110       .  S
C363        H375   1.107       .  S
C363        H376   1.111       .  S
C377        C378   1.400       .  A
C377        C382   1.402       .  A
C377        H387   1.084       .  S
C378        C383   1.477       .  S
C378        C379   1.410       .  A
C379        C380   1.404       .  A
C379        C384   1.507       .  S
C380        C381   1.405       .  A
C380        H385   1.084       .  S
C381        C382   1.416       .  A
C382        C386   1.510       .  S
C383        C388   1.409       .  A
C383        C392   1.398       .  A
C384        H400   1.110       .  S
C384        H401   1.110       .  S
C384        H402   1.110       .  S
C386        H397   1.109       .  S
C386        H398   1.111       .  S
C386        H399   1.111       .  S
C388        C389   1.404       .  A
C388        C393   1.506       .  S
C389        C390   1.406       .  A
C389        H394   1.084       .  S
C390        C391   1.419       .  A
C391        C392   1.402       .  A
C391        C395   1.510       .  S
C392        H396   1.084       .  S
C393        H403   1.109       .  S
C393        H404   1.110       .  S
C393        H405   1.110       .  S
C395        H406   1.111       .  S
C395        H407   1.111       .  S
C395        H408   1.109       .  S
C409        C410   1.399       .  A
C409        C414   1.405       .  A
C409        H419   1.084       .  S
C410        C415   1.483       .  S
C410        C411   1.408       .  A
C411        C412   1.403       .  A
C411        C416   1.506       .  S
C412        C413   1.411       .  A
C412        H417   1.083       .  S
C413        C414   1.427       .  A
C414        C418   1.510       .  S
C415        C420   1.412       .  A
C415        C424   1.403       .  A
C416        H432   1.110       .  S
C416        H433   1.110       .  S
C416        H434   1.111       .  S
C418        H429   1.111       .  S
C418        H430   1.108       .  S
C418        H431   1.110       .  S
C420        C421   1.403       .  A
C420        C425   1.506       .  S
C421        C422   1.401       .  A
C421        H426   1.084       .  S
C422        C423   1.415       .  A
C423        C424   1.404       .  A
C423        C427   1.508       .  S
C424        H428   1.084       .  S
C425        H435   1.111       .  S
C425        H436   1.110       .  S
C425        H437   1.110       .  S
C427        H438   1.111       .  S
C427        H439   1.109       .  S
C427        H440   1.110       .  S
C441        C442   1.400       .  A
C441        C446   1.403       .  A
C441        H451   1.084       .  S
C442        C447   1.480       .  S
C442        C443   1.410       .  A
C443        C444   1.402       .  A
C443        C448   1.506       .  S
C444        C445   1.406       .  A
C444        H449   1.084       .  S
C445        C446   1.421       .  A
C446        C450   1.511       .  S
C447        C452   1.410       .  A
C447        C456   1.400       .  A
C448        H464   1.110       .  S
C448        H465   1.110       .  S
C448        H466   1.111       .  S
C450        H461   1.109       .  S
C450        H462   1.111       .  S
C450        H463   1.111       .  S
C452        C453   1.404       .  A
C452        C457   1.507       .  S
C453        C454   1.406       .  A
C453        H458   1.084       .  S
C454        C455   1.418       .  A
C455        C456   1.403       .  A
C455        C459   1.509       .  S
C456        H460   1.085       .  S
C457        H467   1.111       .  S
C457        H468   1.110       .  S
C457        H469   1.110       .  S
C459        H470   1.111       .  S
C459        H471   1.106       .  S
C459        H472   1.110       .  S
C473        C474   1.401       .  A
C473        C478   1.404       .  A
C473        H483   1.085       .  S
C474        C479   1.482       .  S
C474        C475   1.410       .  A
C475        C476   1.403       .  A
C475        C480   1.506       .  S
C476        C477   1.405       .  A
C476        H481   1.084       .  S
C477        C478   1.419       .  A
C478        C482   1.509       .  S
C479        C484   1.410       .  A
C479        C488   1.402       .  A
C480        H496   1.110       .  S
C480        H497   1.109       .  S
C480        H498   1.111       .  S
C482        H493   1.110       .  S
C482        H494   1.111       .  S
C482        H495   1.106       .  S
C484        C485   1.404       .  A
C484        C489   1.507       .  S
C485        C486   1.405       .  A
C485        H490   1.084       .  S
C486        C487   1.417       .  A
C487        C488   1.404       .  A
C487        C491   1.509       .  S
C488        H492   1.085       .  S
C489        H499   1.111       .  S
C489        H500   1.110       .  S
C489        H501   1.109       .  S
C491        H502   1.111       .  S
C491        H503   1.107       .  S
C491        H504   1.110       .  S
C505        C506   1.399       .  A
C505        C510   1.405       .  A
C505        H515   1.084       .  S
C506        C511   1.482       .  S
C506        C507   1.409       .  A
C507        C508   1.404       .  A
C507        C512   1.507       .  S
C508        C509   1.407       .  A
C508        H513   1.082       .  S
C509        C510   1.424       .  A
C510        C514   1.509       .  S
C511        C516   1.412       .  A
C511        C520   1.401       .  A
C512        H528   1.110       .  S
C512        H529   1.110       .  S
C512        H530   1.111       .  S
C514        H525   1.109       .  S
C514        H526   1.111       .  S
C514        H527   1.111       .  S
C516        C517   1.404       .  A
C516        C521   1.506       .  S
C517        C518   1.403       .  A
C517        H522   1.084       .  S
C518        C519   1.416       .  A
C519        C520   1.402       .  A
C519        C523   1.509       .  S
C520        H524   1.085       .  S
C521        H531   1.110       .  S
C521        H532   1.110       .  S
C521        H533   1.110       .  S
C523        H534   1.111       .  S
C523        H535   1.107       .  S
C523        H536   1.110       .  S
C537        C538   1.401       .  A
C537        C542   1.405       .  A
C537        H547   1.085       .  S
C538        C543   1.482       .  S
C538        C539   1.409       .  A
C539        C540   1.403       .  A
C539        C544   1.506       .  S
C540        C541   1.406       .  A
C540        H545   1.084       .  S
C541        C542   1.420       .  A
C542        C546   1.509       .  S
C543        C548   1.410       .  A
C543        C552   1.402       .  A
C544        H560   1.110       .  S
C544        H561   1.109       .  S
C544        H562   1.111       .  S
C546        H557   1.110       .  S
C546        H558   1.111       .  S
C546        H559   1.106       .  S
C548        C549   1.403       .  A
C548        C553   1.507       .  S
C549        C550   1.405       .  A
C549        H554   1.084       .  S
C550        C551   1.418       .  A
C551        C552   1.405       .  A
C551        C555   1.509       .  S
C552        H556   1.085       .  S
C553        H563   1.111       .  S
C553        H564   1.110       .  S
C553        H565   1.109       .  S
C555        H566   1.111       .  S
C555        H567   1.106       .  S
C555        H568   1.110       .  S
C569        C570   1.398       .  A
C569        C574   1.401       .  A
C569        H579   1.085       .  S
C570        C575   1.479       .  S
C570        C571   1.410       .  A
C571        C572   1.405       .  A
C571        C576   1.506       .  S
C572        C573   1.406       .  A
C572        H577   1.084       .  S
C573        C574   1.418       .  A
C574        C578   1.507       .  S
C575        C580   1.410       .  A
C575        C584   1.400       .  A
C576        H592   1.111       .  S
C576        H593   1.110       .  S
C576        H594   1.111       .  S
C578        H589   1.110       .  S
C578        H590   1.111       .  S
C578        H591   1.106       .  S
C580        C581   1.403       .  A
C580        C585   1.506       .  S
C581        C582   1.405       .  A
C581        H586   1.084       .  S
C582        C583   1.419       .  A
C583        C584   1.402       .  A
C583        C587   1.510       .  S
C584        H588   1.085       .  S
C585        H595   1.111       .  S
C585        H596   1.110       .  S
C585        H597   1.110       .  S
C587        H598   1.111       .  S
C587        H599   1.107       .  S
C587        H600   1.110       .  S
C601        C602   1.401       .  A
C601        C606   1.404       .  A
C601        H611   1.084       .  S
C602        C607   1.482       .  S
C602        C603   1.410   1_556  A
C603        C604   1.403       .  A
C603        C608   1.506       .  S
C604        C605   1.405   1_554  A
C604        H609   1.082       .  S
C605        C606   1.420       .  A
C606        C610   1.509       .  S
C607        C612   1.408   1_556  A
C607        C616   1.402       .  A
C608        H624   1.110       .  S
C608        H625   1.110       .  S
C608        H626   1.111       .  S
C610        H621   1.110       .  S
C610        H622   1.111       .  S
C610        H623   1.106       .  S
C612        C613   1.401       .  A
C612        C617   1.507       .  S
C613        C614   1.405   1_554  A
C613        H618   1.081       .  S
C614        C615   1.421       .  A
C615        C616   1.408       .  A
C615        C619   1.509       .  S
C616        H620   1.084       .  S
C617        H627   1.111       .  S
C617        H628   1.110       .  S
C617        H629   1.110       .  S
C619        H630   1.111       .  S
C619        H631   1.111       .  S
C619        H632   1.109       .  S
C633        C634   1.399   1_554  A
C633        C638   1.400       .  A
C633        H643   1.085       .  S
C634        C639   1.478       .  S
C634        C635   1.410       .  A
C635        C636   1.404       .  A
C635        C640   1.507       .  S
C636        C637   1.405       .  A
C636        H641   1.084       .  S
C637        C638   1.418   1_556  A
C638        C642   1.510       .  S
C639        C644   1.408       .  A
C639        C648   1.398   1_556  A
C640        H656   1.110       .  S
C640        H657   1.110       .  S
C640        H658   1.111       .  S
C642        H653   1.110       .  S
C642        H654   1.111       .  S
C642        H655   1.107       .  S
C644        C645   1.405       .  A
C644        C649   1.506       .  S
C645        C646   1.408       .  A
C645        H650   1.084       .  S
C646        C647   1.420   1_556  A
C647        C648   1.403       .  A
C647        C651   1.508       .  S
C648        H652   1.084       .  S
C649        H659   1.109       .  S
C649        H660   1.110       .  S
C649        H661   1.110       .  S
C651        H662   1.111       .  S
C651        H663   1.111       .  S
C651        H664   1.109       .  S
C665        C666   1.402   1_556  A
C665        C670   1.405       .  A
C665        H675   1.085       .  S
C666        C671   1.482       .  S
C666        C667   1.410       .  A
C667        C668   1.403       .  A
C667        C672   1.507       .  S
C668        C669   1.404   1_554  A
C668        H673   1.084       .  S
C669        C670   1.419       .  A
C670        C674   1.509       .  S
C671        C676   1.410       .  A
C671        C680   1.401   1_554  A
C672        H688   1.110       .  S
C672        H689   1.109       .  S
C672        H690   1.111       .  S
C674        H685   1.110       .  S
C674        H686   1.111       .  S
C674        H687   1.106       .  S
C676        C677   1.404       .  A
C676        C681   1.507       .  S
C677        C678   1.406       .  A
C677        H682   1.084       .  S
C678        C679   1.419   1_554  A
C679        C680   1.405       .  A
C679        C683   1.510       .  S
C680        H684   1.084       .  S
C681        H691   1.111       .  S
C681        H692   1.110       .  S
C681        H693   1.109       .  S
C683        H694   1.111       .  S
C683        H695   1.111       .  S
C683        H696   1.109       .  S
C697        C698   1.401       .  A
C697        C702   1.403       .  A
C697        H707   1.085       .  S
C698        C703   1.480       .  S
C698        C699   1.410   1_554  A
C699        C700   1.402       .  A
C699        C704   1.507       .  S
C700        C701   1.405   1_556  A
C700        H705   1.084       .  S
C701        C702   1.419       .  A
C702        C706   1.509       .  S
C703        C708   1.411   1_554  A
C703        C712   1.400       .  A
C704        H720   1.110       .  S
C704        H721   1.109       .  S
C704        H722   1.111       .  S
C706        H717   1.110       .  S
C706        H718   1.111       .  S
C706        H719   1.106       .  S
C708        C709   1.405       .  A
C708        C713   1.507       .  S
C709        C710   1.405   1_556  A
C709        H714   1.084       .  S
C710        C711   1.417       .  A
C711        C712   1.403       .  A
C711        C715   1.506       .  S
C712        H716   1.085       .  S
C713        H723   1.111       .  S
C713        H724   1.110       .  S
C713        H725   1.109       .  S
C715        H726   1.110       .  S
C715        H727   1.107       .  S
C715        H728   1.109       .  S
C729        C730   1.401       .  A
C729        C734   1.406       .  A
C729        H739   1.084       .  S
C730        C735   1.481       .  S
C730        C731   1.409   1_565  A
C731        C732   1.403       .  A
C731        C736   1.507       .  S
C732        C733   1.406   1_545  A
C732        H737   1.082       .  S
C733        C734   1.421       .  A
C734        C738   1.509       .  S
C735        C740   1.410   1_565  A
C735        C744   1.401       .  A
C736        H752   1.110       .  S
C736        H753   1.110       .  S
C736        H754   1.110       .  S
C738        H749   1.109       .  S
C738        H750   1.111       .  S
C738        H751   1.111       .  S
C740        C741   1.402       .  A
C740        C745   1.506       .  S
C741        C742   1.404   1_545  A
C741        H746   1.085       .  S
C742        C743   1.418       .  A
C743        C744   1.403       .  A
C743        C747   1.509       .  S
C744        H748   1.085       .  S
C745        H755   1.111       .  S
C745        H756   1.110       .  S
C745        H757   1.110       .  S
C747        H758   1.111       .  S
C747        H759   1.106       .  S
C747        H760   1.110       .  S
C761        C762   1.400       .  A
C761        C766   1.404       .  A
C761        H771   1.085       .  S
C762        C767   1.477       .  S
C762        C763   1.408   1_565  A
C763        C764   1.400       .  A
C763        C768   1.507       .  S
C764        C765   1.405   1_545  A
C764        H769   1.082       .  S
C765        C766   1.422       .  A
C766        C770   1.509       .  S
C767        C772   1.409   1_565  A
C767        C776   1.401       .  A
C768        H784   1.110       .  S
C768        H785   1.110       .  S
C768        H786   1.111       .  S
C770        H781   1.110       .  S
C770        H782   1.111       .  S
C770        H783   1.106       .  S
C772        C773   1.403       .  A
C772        C777   1.507       .  S
C773        C774   1.405   1_545  A
C773        H778   1.084       .  S
C774        C775   1.417       .  A
C775        C776   1.402       .  A
C775        C779   1.510       .  S
C776        H780   1.085       .  S
C777        H787   1.111       .  S
C777        H788   1.110       .  S
C777        H789   1.110       .  S
C779        H790   1.111       .  S
C779        H791   1.107       .  S
C779        H792   1.110       .  S
C793        C794   1.400       .  A
C793        C798   1.402       .  A
C793        H803   1.085       .  S
C794        C799   1.480       .  S
C794        C795   1.411   1_545  A
C795        C796   1.402       .  A
C795        C800   1.506       .  S
C796        C797   1.403   1_565  A
C796        H801   1.085       .  S
C797        C798   1.417       .  A
C798        C802   1.509       .  S
C799        C804   1.408   1_545  A
C799        C808   1.397       .  A
C800        H816   1.110       .  S
C800        H817   1.110       .  S
C800        H818   1.110       .  S
C802        H813   1.110       .  S
C802        H814   1.110       .  S
C802        H815   1.107       .  S
C804        C805   1.404       .  A
C804        C809   1.507       .  S
C805        C806   1.409   1_565  A
C805        H810   1.083       .  S
C806        C807   1.424       .  A
C807        C808   1.403       .  A
C807        C811   1.509       .  S
C808        H812   1.084       .  S
C809        H819   1.111       .  S
C809        H820   1.110       .  S
C809        H821   1.111       .  S
C811        H822   1.111       .  S
C811        H823   1.108       .  S
C811        H824   1.110       .  S
C825        C826   1.400       .  A
C825        C830   1.406       .  A
C825        H835   1.084       .  S
C826        C831   1.484       .  S
C826        C827   1.409   1_565  A
C827        C828   1.404       .  A
C827        C832   1.506       .  S
C828        C829   1.407   1_545  A
C828        H833   1.082       .  S
C829        C830   1.423       .  A
C830        C834   1.510       .  S
C831        C836   1.411       .  A
C831        C840   1.403   1_565  A
C832        H848   1.110       .  S
C832        H849   1.111       .  S
C832        H850   1.111       .  S
C834        H845   1.111       .  S
C834        H846   1.111       .  S
C834        H847   1.109       .  S
C836        C837   1.405       .  A
C836        C841   1.506       .  S
C837        C838   1.403       .  A
C837        H842   1.084       .  S
C838        C839   1.414   1_565  A
C839        C840   1.404       .  A
C839        C843   1.509       .  S
C840        H844   1.084       .  S
C841        H851   1.111       .  S
C841        H852   1.110       .  S
C841        H853   1.110       .  S
C843        H854   1.110       .  S
C843        H855   1.108       .  S
C843        H856   1.111       .  S
C857        C858   1.399   1_455  A
C857        C862   1.400       .  A
C857        H867   1.085       .  S
C858        C863   1.476       .  S
C858        C859   1.409       .  A
C859        C860   1.402       .  A
C859        C864   1.505       .  S
C860        C861   1.405   1_655  A
C860        H865   1.084       .  S
C861        C862   1.416       .  A
C862        C866   1.507       .  S
C863        C868   1.409   1_655  A
C863        C872   1.401       .  A
C864        H880   1.110       .  S
C864        H881   1.110       .  S
C864        H882   1.109       .  S
C866        H877   1.111       .  S
C866        H878   1.110       .  S
C866        H879   1.106       .  S
C868        C869   1.400       .  A
C868        C873   1.507       .  S
C869        C870   1.404   1_455  A
C869        H874   1.085       .  S
C870        C871   1.418       .  A
C871        C872   1.403       .  A
C871        C875   1.510       .  S
C872        H876   1.085       .  S
C873        H883   1.111       .  S
C873        H884   1.110       .  S
C873        H885   1.110       .  S
C875        H886   1.110       .  S
C875        H887   1.106       .  S
C875        H888   1.111       .  S
C889        C890   1.400       .  A
C889        C894   1.405       .  A
C889        H899   1.084       .  S
C890        C895   1.481       .  S
C890        C891   1.410   1_455  A
C891        C892   1.404       .  A
C891        C896   1.506       .  S
C892        C893   1.406   1_655  A
C892        H897   1.084       .  S
C893        C894   1.418       .  A
C894        C898   1.508       .  S
C895        C900   1.411   1_455  A
C895        C904   1.400       .  A
C896        H912   1.110       .  S
C896        H913   1.110       .  S
C896        H914   1.111       .  S
C898        H909   1.109       .  S
C898        H910   1.111       .  S
C898        H911   1.111       .  S
C900        C901   1.404       .  A
C900        C905   1.507       .  S
C901        C902   1.405   1_655  A
C901        H906   1.084       .  S
C902        C903   1.419       .  A
C903        C904   1.405       .  A
C903        C907   1.510       .  S
C904        H908   1.084       .  S
C905        H915   1.111       .  S
C905        H916   1.110       .  S
C905        H917   1.110       .  S
C907        H918   1.111       .  S
C907        H919   1.109       .  S
C907        H920   1.111       .  S
C921        C922   1.400       .  A
C921        C926   1.406       .  A
C921        H931   1.084       .  S
C922        C927   1.484       .  S
C922        C923   1.410   1_455  A
C923        C924   1.404       .  A
C923        C928   1.506       .  S
C924        C925   1.407   1_655  A
C924        H929   1.084       .  S
C925        C926   1.420       .  A
C926        C930   1.507       .  S
C927        C932   1.412       .  A
C927        C936   1.401   1_455  A
C928        H944   1.110       .  S
C928        H945   1.110       .  S
C928        H946   1.110       .  S
C930        H941   1.111       .  S
C930        H942   1.109       .  S
C930        H943   1.110       .  S
C932        C933   1.405       .  A
C932        C937   1.506       .  S
C933        C934   1.404   1_455  A
C933        H938   1.085       .  S
C934        C935   1.414       .  A
C935        C936   1.402       .  A
C935        C939   1.507       .  S
C936        H940   1.084       .  S
C937        H947   1.111       .  S
C937        H948   1.110       .  S
C937        H949   1.110       .  S
C939        H950   1.109       .  S
C939        H951   1.108       .  S
C939        H952   1.111       .  S
C953        C954   1.399       .  A
C953        C958   1.403       .  A
C953        H963   1.084       .  S
C954        C959   1.474       .  S
C954        C955   1.408   1_655  A
C955        C956   1.400       .  A
C955        C960   1.508       .  S
C956        C957   1.406   1_455  A
C956        H961   1.081       .  S
C957        C958   1.420       .  A
C958        C962   1.509       .  S
C959        C964   1.409       .  A
C959        C968   1.401   1_655  A
C960        H976   1.110       .  S
C960        H977   1.109       .  S
C960        H978   1.110       .  S
C962        H973   1.111       .  S
C962        H974   1.109       .  S
C962        H975   1.111       .  S
C964        C965   1.401       .  A
C964        C969   1.507       .  S
C965        C966   1.403       .  A
C965        H970   1.084       .  S
C966        C967   1.413   1_655  A
C967        C968   1.402       .  A
C967        C971   1.507       .  S
C968        H972   1.084       .  S
C969        H979   1.111       .  S
C969        H980   1.110       .  S
C969        H981   1.109       .  S
C971        H982   1.107       .  S
C971        H983   1.111       .  S
C971        H984   1.111       .  S
