geometry optimzed in LAMMPS
_audit_creation_date              2020-11-30 
_audit_creation_method            'lammps2cif' 
_symmetry_space_group_name_H-M    'P1' 
_symmetry_Int_Tables_number       1 
_symmetry_cell_setting            triclinic 
loop_ 
_symmetry_equiv_pos_as_xyz 
  x,y,z 
_cell_length_a                    50.85937661 
_cell_length_b                    22.823246525221485 
_cell_length_c                    34.738971724753306 
_cell_angle_alpha                 86.73151526508532 
_cell_angle_beta                  90.4809539940712 
_cell_angle_gamma                 87.05947610945104 
loop_ 
_atom_site_label 
_atom_site_type_symbol 
_atom_site_fract_x 
_atom_site_fract_y 
_atom_site_fract_z 
_atom_site_charge 
C1          C  0.98351773  0.71558173  0.17102544    -0.02800
C2          C  0.52133449  0.30975689  0.67277239    -0.02800
O3          O  0.60404717  0.24856589  0.39935587    -0.81200
O4          O  0.62941526  0.24036399  0.22962727    -0.65900
O5          O  0.63498826  0.26916838  0.33583453    -1.12500
C6          C  0.57790481  0.43658429  0.30209246     1.05700
O7          O  0.63508547  0.33384156  0.21196889    -0.79100
O8          O  0.63987869  0.41542889  0.26585612    -0.66700
Ni9        Ni  0.63239018  0.20777722  0.37440549     1.34900
C10         C  0.64794599  0.41738894  0.30051017     0.84400
O11         O  0.65767970  0.18562185  0.28781467    -0.79600
O12         O  0.66109726  0.16442843  0.35196519    -0.89900
C13         C  0.63447390  0.28003106  0.20413069     0.84000
O14         O  0.60756487  0.16082339  0.35002159    -0.68100
O15         O  0.58638822  0.43102375  0.26797618    -0.87400
C16         C  0.59745598  0.16261161  0.31640815     0.84800
C17         C  0.66816139  0.15698303  0.31731684     1.06400
H18         H  0.58972396  0.30408922  0.27709869     0.38200
O19         O  0.60708019  0.31814225  0.28109923    -1.10100
O20         O  0.63816130  0.38782150  0.32873007    -0.66700
Ni21       Ni  0.60971373  0.33461081  0.33437600     1.26300
O22         O  0.60370823  0.19921850  0.28949854    -0.67000
O23         O  0.58466016  0.40129255  0.33077027    -0.79200
C24         C  0.60561743  0.29960278  0.41183739     0.84200
O25         O  0.61166434  0.34253288  0.38915534    -0.66400
Ni26       Ni  0.61096232  0.37972272  0.24252075     1.27400
Ni27       Ni  0.63214902  0.25186472  0.28331216     1.26100
H28         H  0.65227447  0.28391040  0.33928389     0.38700
C29         C  0.68818236  0.21555049  0.92980418     0.86200
C30         C  0.70270653  0.27149346  0.91915200    -0.54100
C31         C  0.71082338  0.27683553  0.88172428     0.09100
C32         C  0.70387331  0.22444321  0.85809144     0.20000
C33         C  0.66583175  0.21559884  0.89984342    -0.54800
C34         C  0.67375351  0.22147313  0.86241402     0.09200
C35         C  0.70744732  0.16518055  0.91891776    -0.54300
C36         C  0.71593335  0.16959526  0.88163648     0.09800
H37         H  0.70622553  0.30418274  0.93987250     0.14300
H38         H  0.71028022  0.22826973  0.82762661     0.00000
H39         H  0.64520653  0.21486797  0.90767377     0.14600
H40         H  0.71397079  0.12844449  0.93828981     0.14400
O41         O  0.85416515  0.76827846  0.71304877    -0.81200
O42         O  0.89187815  0.76843734  0.88372726    -0.65900
O43         O  0.88812369  0.74602804  0.77557257    -1.12500
C44         C  0.82416483  0.60934485  0.81700935     1.05700
O45         O  0.89419311  0.67187561  0.89372995    -0.79100
O46         O  0.88140871  0.58877177  0.84696605    -0.66700
Ni47       Ni  0.88036583  0.80981561  0.73928641     1.34900
C48         C  0.89420127  0.58586127  0.81585892     0.84400
O49         O  0.91633633  0.81807046  0.82210962    -0.79600
O50         O  0.90630697  0.85644882  0.76229670    -0.89900
C51         C  0.89834933  0.72258651  0.90500254     0.84000
O52         O  0.85254183  0.84841711  0.76630154    -0.68100
O53         O  0.82990544  0.62290896  0.85110643    -0.87400
C54         C  0.84917104  0.85541317  0.80191484     0.84800
C55         C  0.91934034  0.85592272  0.79401246     1.06400
H56         H  0.84543058  0.73024904  0.83445971     0.38200
O57         O  0.86190648  0.70786962  0.83187698    -1.10100
O58         O  0.89127639  0.62535617  0.78828372    -0.66700
Ni59       Ni  0.86292186  0.68612534  0.78002535     1.26300
O60         O  0.86310161  0.82687501  0.82805712    -0.67000
O61         O  0.83686437  0.62654833  0.78697493    -0.79200
C62         C  0.85568741  0.71562703  0.70263475     0.84200
O63         O  0.86381049  0.67330193  0.72590648    -0.66400
Ni64       Ni  0.86193047  0.64900771  0.87161915     1.27400
Ni65       Ni  0.88943538  0.76202104  0.82881952     1.26100
H66         H  0.90495733  0.72828848  0.76883474     0.38700
C67         C  0.81139201  0.74434626  0.41866434     0.86200
C68         C  0.79253660  0.69806576  0.40770210    -0.54100
C69         C  0.78538616  0.69993734  0.36959282     0.09100
C70         C  0.79786554  0.75054527  0.34551323     0.20000
C71         C  0.83477307  0.73776539  0.39115751    -0.54800
C72         C  0.82783128  0.74076023  0.35294683     0.09200
C73         C  0.79757707  0.80330797  0.40460624    -0.54300
C74         C  0.79030847  0.80712111  0.36646536     0.09800
H75         H  0.78502220  0.66716622  0.42927732     0.14300
H76         H  0.79256836  0.75333134  0.31440090     0.00000
H77         H  0.85516420  0.73300524  0.40086037     0.14600
H78         H  0.79396279  0.83951237  0.42304192     0.14400
C79         C  0.47460006  0.82993631  0.30652530    -0.02800
C80         C  0.02048350  0.22623130  0.81697041    -0.02800
O81         O  0.10788609  0.26729421  0.09661990    -0.81200
O82         O  0.14251044  0.26569306  0.26175645    -0.65900
O83         O  0.14220496  0.23093555  0.15601403    -1.12500
C84         C  0.08890506  0.07844600  0.19656452     1.05700
O85         O  0.15320550  0.17191898  0.27671565    -0.79100
O86         O  0.15725365  0.09623716  0.21932941    -0.66700
Ni87       Ni  0.14068896  0.29099570  0.11673354     1.34900
C88         C  0.15787884  0.08690442  0.18362165     0.84400
O89         O  0.16791971  0.31194819  0.19975740    -0.79600
O90         O  0.17336457  0.31734715  0.13532600    -0.89900
C91         C  0.15015368  0.22487709  0.28639476     0.84000
O92         O  0.12188175  0.35095712  0.14305002    -0.68100
O93         O  0.10425854  0.07697305  0.22601833    -0.87400
C94         C  0.11018726  0.35269621  0.17516560     0.84800
C95         C  0.18002845  0.32956540  0.16937261     1.06400
H96         H  0.10139533  0.20751335  0.22271397     0.38200
O97         O  0.11809115  0.19104376  0.21420119    -1.10100
O98         O  0.14130140  0.11167102  0.15940171    -0.66700
Ni99       Ni  0.11498014  0.17612900  0.16078308     1.26300
O100        O  0.11356630  0.31153217  0.20154330    -0.67000
O101        O  0.08877645  0.11908820  0.16952035    -0.79200
C102        C  0.10438081  0.21672987  0.08453123     0.84200
O103        O  0.11083855  0.17059753  0.10569720    -0.66400
Ni104      Ni  0.12869207  0.12700737  0.24914322     1.27400
Ni105      Ni  0.14249612  0.25197375  0.20798066     1.26100
H106        H  0.15865356  0.20905986  0.15224220     0.38700
C107        C  0.20642597  0.36838419  0.61158000     0.86200
C108        C  0.18244548  0.36034830  0.63700843    -0.54100
C109        C  0.16894991  0.31123432  0.63100373     0.09100
C110        C  0.18161212  0.27324133  0.59969283     0.20000
C111        C  0.22342827  0.31121591  0.61839189    -0.54800
C112        C  0.21058620  0.26161606  0.61248963     0.09200
C113        C  0.19606086  0.36535019  0.56995377    -0.54300
C114        C  0.18326630  0.31546119  0.56337690     0.09800
H115        H  0.17710617  0.39107269  0.65871389     0.14300
H116        H  0.17125987  0.23268154  0.59476935     0.00000
H117        H  0.24407035  0.30981853  0.62688371     0.14600
H118        H  0.20063536  0.39662890  0.54664843     0.14400
O119        O  0.39675722  0.77149240  0.59091731    -0.81200
O120        O  0.36236444  0.74077533  0.75392954    -0.65900
O121        O  0.36198719  0.79581239  0.64764228    -1.12500
C122        C  0.41346329  0.94498212  0.68833564     1.05700
O123        O  0.35221942  0.83224329  0.76815877    -0.79100
O124        O  0.34612773  0.91566431  0.71081787    -0.66700
Ni125      Ni  0.36388233  0.74403447  0.60795536     1.34900
C126        C  0.34442989  0.93184560  0.67527365     0.84400
O127        O  0.33657025  0.70595655  0.68948955    -0.79600
O128        O  0.33135484  0.71476124  0.62466833    -0.89900
C129        C  0.35655161  0.77833655  0.77878161     0.84000
O130        O  0.38216243  0.67886220  0.63433208    -0.68100
O131        O  0.39834649  0.93993754  0.71742377    -0.87400
C132        C  0.39420972  0.67093262  0.66645682     0.84800
C133        C  0.32453814  0.69522524  0.65809803     1.06400
H134        H  0.40310200  0.80833267  0.71485175     0.38200
O135        O  0.38622399  0.82579102  0.70615419    -1.10100
O136        O  0.36115627  0.91396764  0.65081573    -0.66700
Ni137      Ni  0.38869467  0.85121415  0.65266661     1.26300
O138        O  0.39117116  0.70699551  0.69312714    -0.67000
O139        O  0.41423501  0.90853755  0.66162864    -0.79200
C140        C  0.39845327  0.82347615  0.57674655     0.84200
O141        O  0.39261153  0.86663768  0.59744947    -0.66400
Ni142      Ni  0.37551515  0.88347560  0.74078625     1.27400
Ni143      Ni  0.36198441  0.76481755  0.69947421     1.26100
H144        H  0.34530817  0.81754326  0.64359814     0.38700
C145        C  0.29511003  0.66276436  0.11963472     0.86200
C146        C  0.31821296  0.68260833  0.14343058    -0.54100
C147        C  0.32850877  0.73349777  0.12931456     0.09100
C148        C  0.31450028  0.76061052  0.09237555     0.20000
C149        C  0.27515397  0.71586007  0.11688860    -0.54800
C150        C  0.28528195  0.76722788  0.10376661     0.09200
C151        C  0.30552271  0.66016504  0.07818964    -0.54300
C152        C  0.31549847  0.71121234  0.06297144     0.09800
H153        H  0.32546514  0.65901661  0.16975657     0.14300
H154        H  0.32233140  0.80305135  0.08212929     0.00000
H155        H  0.25487799  0.71413928  0.12620106     0.14600
H156        H  0.30428039  0.62121029  0.06215504     0.14400
C157        C  0.32431716  0.71853599  0.02142160    -0.01600
C158        C  0.33879106  0.76659332  0.00879757    -0.09600
C159        C  0.34594349  0.77541825  0.97006260    -0.18500
C160        C  0.33915838  0.73596074  0.94197773     0.03900
C161        C  0.32526844  0.68628699  0.95466977     0.18100
C162        C  0.31784850  0.67834948  0.99363892    -0.19900
C163        C  0.31845641  0.64516455  0.92822305    -0.21200
C164        C  0.32463269  0.65300067  0.88925735    -0.19700
C165        C  0.33763105  0.70245383  0.87542963     0.19500
C166        C  0.34526252  0.74439382  0.90176233     0.01600
C167        C  0.35810942  0.79377789  0.88651696    -0.14400
C168        C  0.36218018  0.80247232  0.84697468    -0.12100
C169        C  0.35412669  0.76217641  0.82079082     0.01200
C170        C  0.34241057  0.71119145  0.83534989    -0.24300
H171        H  0.34491655  0.79793655  0.02876843     0.09200
H172        H  0.35688321  0.81370050  0.96307222     0.12700
H173        H  0.30635469  0.64113746  0.00154028     0.11500
H174        H  0.30800870  0.60680662  0.93768750     0.12600
H175        H  0.31876647  0.62061625  0.86967540     0.11700
H176        H  0.36473222  0.82739686  0.90427387     0.08800
H177        H  0.37151507  0.84191239  0.83663622     0.12000
H178        H  0.33596429  0.67980954  0.81544680     0.13900
C179        C  0.30218504  0.65648283  0.65881966    -0.01600
C180        C  0.28290832  0.66521226  0.62974172    -0.09600
C181        C  0.26483967  0.62290407  0.62369582    -0.18500
C182        C  0.26561541  0.56958663  0.64643781     0.03900
C183        C  0.28397902  0.56259092  0.67774883     0.18100
C184        C  0.30198719  0.60615650  0.68382118    -0.19900
C185        C  0.28493766  0.51111905  0.70173464    -0.21200
C186        C  0.26864675  0.46570279  0.69455440    -0.19700
C187        C  0.25137734  0.47018481  0.66277023     0.19500
C188        C  0.24944727  0.52233218  0.63842796     0.01600
C189        C  0.23197160  0.52421974  0.60644596    -0.14400
C190        C  0.21800177  0.47548298  0.59796075    -0.12100
C191        C  0.22083682  0.42293057  0.62095396     0.01200
C192        C  0.23656355  0.42208374  0.65453873    -0.24300
H193        H  0.28244744  0.70427732  0.61043545     0.09200
H194        H  0.25100413  0.63277765  0.60030996     0.12700
H195        H  0.31690236  0.59909783  0.70633151     0.11500
H196        H  0.29868593  0.50553661  0.72582966     0.12600
H197        H  0.27013173  0.42607040  0.71334311     0.11700
H198        H  0.22890450  0.56237184  0.58693021     0.08800
H199        H  0.20470373  0.47997853  0.57345650     0.12000
H200        H  0.23796625  0.38292147  0.67377692     0.13900
C201        C  0.32241431  0.97457092  0.66270312    -0.01600
C202        C  0.31852278  0.99415362  0.62392806    -0.09600
C203        C  0.29855679  0.03692456  0.61314668    -0.18500
C204        C  0.28190222  0.06200899  0.64103008     0.03900
C205        C  0.28586898  0.04149007  0.68015459     0.18100
C206        C  0.30565561  0.99822314  0.69041180    -0.19900
C207        C  0.27042194  0.06499731  0.70922531    -0.21200
C208        C  0.25134033  0.10947338  0.70053262    -0.19700
C209        C  0.24705266  0.13135836  0.66249944     0.19500
C210        C  0.26192883  0.10755060  0.63195912     0.01600
C211        C  0.25655261  0.13166132  0.59404471    -0.14400
C212        C  0.23825274  0.17928259  0.58726712    -0.12100
C213        C  0.22454571  0.20345681  0.61782779     0.01200
C214        C  0.22860328  0.17860679  0.65514709    -0.24300
H215        H  0.33111868  0.97682208  0.60183050     0.09200
H216        H  0.29686979  0.05010409  0.58289519     0.12700
H217        H  0.30834555  0.98390642  0.72054767     0.11500
H218        H  0.27339170  0.04945016  0.73908923     0.12600
H219        H  0.24005464  0.12741187  0.72385555     0.11700
H220        H  0.26673312  0.11581847  0.56929423     0.08800
H221        H  0.23569302  0.19908217  0.55829767     0.12000
H222        H  0.21831811  0.19828649  0.67883261     0.13900
C223        C  0.15631492  0.23805250  0.32683841    -0.01600
C224        C  0.16433186  0.19215532  0.35364544    -0.09600
C225        C  0.16860922  0.20243148  0.39234696    -0.18500
C226        C  0.16495103  0.25943160  0.40592323     0.03900
C227        C  0.15720879  0.30616756  0.37863813     0.18100
C228        C  0.15306479  0.29520781  0.33957665    -0.19900
C229        C  0.15330109  0.36346288  0.39061557    -0.21200
C230        C  0.15675749  0.37537059  0.42912663    -0.19700
C231        C  0.16432042  0.33034617  0.45669088     0.19500
C232        C  0.16856395  0.27168658  0.44554206     0.01600
C233        C  0.17626449  0.22796470  0.47458289    -0.14400
C234        C  0.17997862  0.24208032  0.51280386    -0.12100
C235        C  0.17621506  0.30004461  0.52357503     0.01200
C236        C  0.16801756  0.34384568  0.49532348    -0.24300
H237        H  0.16701664  0.14749298  0.34484185     0.09200
H238        H  0.17453757  0.16459845  0.41093073     0.12700
H239        H  0.14684212  0.33113767  0.31923442     0.11500
H240        H  0.14740995  0.39934543  0.37006284     0.12600
H241        H  0.15354878  0.42023093  0.43739991     0.11700
H242        H  0.17993097  0.18247868  0.46868367     0.08800
H243        H  0.18673189  0.20750311  0.53371879     0.12000
H244        H  0.16479812  0.38885070  0.50332675     0.13900
C245        C  0.20216431  0.36828307  0.17286045    -0.01600
C246        C  0.22453695  0.35988490  0.15027338    -0.09600
C247        C  0.24342590  0.40213445  0.14734366    -0.18500
C248        C  0.23997309  0.45547719  0.16595055     0.03900
C249        C  0.21769252  0.46270351  0.19009284     0.18100
C250        C  0.19941132  0.41853937  0.19408902    -0.19900
C251        C  0.21289016  0.51550291  0.20806527    -0.21200
C252        C  0.22871372  0.56270361  0.20053736    -0.19700
C253        C  0.24997065  0.55792793  0.17532831     0.19500
C254        C  0.25666560  0.50348116  0.15916402     0.01600
C255        C  0.27921742  0.50031489  0.13571095    -0.14400
C256        C  0.29243566  0.55074092  0.12480731    -0.12100
C257        C  0.28364429  0.60614283  0.13668013     0.01200
C258        C  0.26382753  0.60803660  0.16476866    -0.24300
H259        H  0.22696133  0.32120413  0.13369547     0.09200
H260        H  0.25969892  0.39320107  0.12852935     0.12700
H261        H  0.18189885  0.42547008  0.21120027     0.11500
H262        H  0.19607749  0.52125189  0.22670054     0.12600
H263        H  0.22374519  0.60385227  0.21350957     0.11700
H264        H  0.28681205  0.45969789  0.12468977     0.08800
H265        H  0.30931588  0.54610607  0.10630151     0.12000
H266        H  0.25829759  0.64915303  0.17735256     0.13900
C267        C  0.27008513  0.82376840  0.10772430    -0.01600
C268        C  0.27882197  0.86372030  0.13346630    -0.09600
C269        C  0.26193420  0.90966047  0.14512823    -0.18500
C270        C  0.23571246  0.91729326  0.13094414     0.03900
C271        C  0.22776499  0.87940664  0.10236542     0.18100
C272        C  0.24476631  0.83271867  0.09154049    -0.19900
C273        C  0.20260185  0.88721572  0.08564237    -0.21200
C274        C  0.18496497  0.93140074  0.09703110    -0.19700
C275        C  0.19167526  0.96763199  0.12641169     0.19500
C276        C  0.21699668  0.96052090  0.14428607     0.01600
C277        C  0.22207410  0.99554335  0.17560202    -0.14400
C278        C  0.20291911  0.03615641  0.18829371    -0.12100
C279        C  0.17833415  0.04446114  0.16970151     0.01200
C280        C  0.17295161  0.01012309  0.13858915    -0.24300
H281        H  0.29828972  0.85734866  0.14638575     0.09200
H282        H  0.26981205  0.93806959  0.16561692     0.12700
H283        H  0.23797490  0.80181442  0.07153604     0.11500
H284        H  0.19648531  0.85884130  0.06361534     0.12600
H285        H  0.16566928  0.93631267  0.08339878     0.11700
H286        H  0.24044191  0.99145874  0.19147425     0.08800
H287        H  0.20746312  0.06162675  0.21264256     0.12000
H288        H  0.15376288  0.01515830  0.12458567     0.13900
C289        C  0.14484596  0.29773633  0.65372643    -0.01600
C290        C  0.12930781  0.34406381  0.66816042    -0.09600
C291        C  0.10897342  0.33343864  0.69377852    -0.18500
C292        C  0.10289635  0.27561821  0.70552574     0.03900
C293        C  0.11667486  0.22855595  0.68803868     0.18100
C294        C  0.13778267  0.23980517  0.66284163    -0.19900
C295        C  0.10938838  0.17078879  0.69629998    -0.21200
C296        C  0.08870100  0.15913553  0.72137750    -0.19700
C297        C  0.07557545  0.20461567  0.74028220     0.19500
C298        C  0.08328720  0.26315835  0.73357270     0.01600
C299        C  0.07202397  0.30650439  0.75657167    -0.14400
C300        C  0.05270673  0.29304574  0.78329449    -0.12100
C301        C  0.04241311  0.23685028  0.78688022     0.01200
C302        C  0.05515834  0.19198139  0.76637015    -0.24300
H303        H  0.13294714  0.38934875  0.65992979     0.09200
H304        H  0.09797144  0.37144399  0.70340184     0.12700
H305        H  0.14911339  0.20339022  0.65140786     0.11500
H306        H  0.11953657  0.13445216  0.68292591     0.12600
H307        H  0.08327987  0.11409596  0.72658928     0.11700
H308        H  0.07846140  0.35085771  0.75554462     0.08800
H309        H  0.04520598  0.32764793  0.80094291     0.12000
H310        H  0.04996442  0.14684967  0.77142656     0.13900
C311        C  0.03557336  0.22694044  0.85618584    -0.01600
C312        C  0.05296837  0.17901220  0.86801083    -0.09600
C313        C  0.06492538  0.17474448  0.90455401    -0.18500
C314        C  0.06076771  0.21957934  0.93053236     0.03900
C315        C  0.04548646  0.27077628  0.91716933     0.18100
C316        C  0.03357050  0.27442126  0.88037117    -0.19900
C317        C  0.04186327  0.31806672  0.94079601    -0.21200
C318        C  0.05266935  0.31528685  0.97771837    -0.19700
C319        C  0.06715698  0.26490325  0.99217104     0.19500
C320        C  0.07139655  0.21603660  0.96903082     0.01600
C321        C  0.08571895  0.16579379  0.98578196    -0.14400
C322        C  0.09573084  0.16482220  0.02366098    -0.12100
C323        C  0.09198580  0.21390591  0.04582082     0.01200
C324        C  0.07748801  0.26348271  0.02977109    -0.24300
H325        H  0.05640899  0.14309380  0.84930411     0.09200
H326        H  0.07727274  0.13577555  0.91170277     0.12700
H327        H  0.02272370  0.31471942  0.87086083     0.11500
H328        H  0.03041355  0.35742454  0.93074612     0.12600
H329        H  0.04943741  0.35270709  0.99527458     0.11700
H330        H  0.08937155  0.12656420  0.97037109     0.08800
H331        H  0.10693844  0.12609931  0.03530129     0.12000
H332        H  0.07423589  0.30164451  0.04668797     0.13900
C333        C  0.34948036  0.76198510  0.15039997    -0.01600
C334        C  0.37488689  0.76473960  0.13553050    -0.09600
C335        C  0.39536602  0.78573675  0.15742996    -0.18500
C336        C  0.39088174  0.80520820  0.19496923     0.03900
C337        C  0.36467980  0.80462459  0.20903673     0.18100
C338        C  0.34442682  0.78289949  0.18687533    -0.19900
C339        C  0.35897226  0.82393204  0.24570913    -0.21200
C340        C  0.37895533  0.84034981  0.26977991    -0.19700
C341        C  0.40519816  0.83773271  0.25786433     0.19500
C342        C  0.41148063  0.82256808  0.21980506     0.01600
C343        C  0.43820207  0.82389697  0.20893898    -0.14400
C344        C  0.45801549  0.83219601  0.23617099    -0.12100
C345        C  0.45207946  0.83756350  0.27544364     0.01200
C346        C  0.42526161  0.84702419  0.28464530    -0.24300
H347        H  0.37910128  0.74868052  0.10737046     0.09200
H348        H  0.41461344  0.78488139  0.14465719     0.12700
H349        H  0.32469866  0.78099240  0.19835703     0.11500
H350        H  0.33899824  0.82450048  0.25637125     0.12600
H351        H  0.37395126  0.85286607  0.29855572     0.11700
H352        H  0.44447134  0.81636006  0.17998974     0.08800
H353        H  0.47836061  0.82889283  0.22721624     0.12000
H354        H  0.41959716  0.85860290  0.31326629     0.13900
C355        C  0.40699086  0.83041630  0.53608691    -0.01600
C356        C  0.40104987  0.78633315  0.51135533    -0.09600
C357        C  0.41096991  0.78585588  0.47418527    -0.18500
C358        C  0.42773581  0.82940083  0.46020790     0.03900
C359        C  0.43334558  0.87506224  0.48490806     0.18100
C360        C  0.42263818  0.87574692  0.52236403    -0.19900
C361        C  0.45026585  0.91857436  0.47242355    -0.21200
C362        C  0.46215944  0.91695812  0.43645736    -0.19700
C363        C  0.45706708  0.87244327  0.41160686     0.19500
C364        C  0.43948535  0.82854819  0.42292008     0.01600
C365        C  0.43475076  0.78516989  0.39663613    -0.14400
C366        C  0.44639114  0.78629396  0.36043190    -0.12100
C367        C  0.46329830  0.83057562  0.34823708     0.01200
C368        C  0.46946902  0.87179456  0.37546897    -0.24300
H369        H  0.38881028  0.75102989  0.52108638     0.09200
H370        H  0.40554534  0.74991337  0.45751491     0.12700
H371        H  0.42751678  0.90975254  0.54137154     0.11500
H372        H  0.45471314  0.95355602  0.49088667     0.12600
H373        H  0.47540610  0.95097498  0.42796033     0.11700
H374        H  0.42183559  0.74999882  0.40282844     0.08800
H375        H  0.44160512  0.75263804  0.34114879     0.12000
H376        H  0.48401577  0.90368571  0.36937448     0.13900
C377        C  0.93782526  0.90383100  0.79834337    -0.01600
C378        C  0.94630687  0.91859215  0.83487563    -0.09600
C379        C  0.96055373  0.96879467  0.83925753    -0.18500
C380        C  0.96680087  0.00627472  0.80703198     0.03900
C381        C  0.95946586  0.98932628  0.76990482     0.18100
C382        C  0.94514257  0.93882762  0.76593057    -0.19900
C383        C  0.96590423  0.02366883  0.73693909    -0.21200
C384        C  0.97901235  0.07530493  0.74004803    -0.19700
C385        C  0.98586444  0.09431059  0.77622302     0.19500
C386        C  0.97982741  0.06008084  0.81021080     0.01600
C387        C  0.98628788  0.08226090  0.84592553    -0.14400
C388        C  0.99913511  0.13459244  0.84781650    -0.12100
C389        C  0.00680275  0.16706493  0.81427999     0.01200
C390        C  0.99851472  0.14766007  0.77857565    -0.24300
H391        H  0.94112562  0.89239640  0.86041194     0.09200
H392        H  0.96615534  0.97740529  0.86829718     0.12700
H393        H  0.93907740  0.92762879  0.73738733     0.11500
H394        H  0.96053399  0.01077863  0.70849148     0.12600
H395        H  0.98356912  0.10090567  0.71394141     0.11700
H396        H  0.98127332  0.06067431  0.87307065     0.08800
H397        H  0.00265780  0.14986482  0.87621244     0.12000
H398        H  0.00224783  0.17391860  0.75239686     0.13900
C399        C  0.91270748  0.53299767  0.81346482    -0.01600
C400        C  0.91687894  0.49581948  0.84691664    -0.09600
C401        C  0.93228135  0.44380398  0.84663673    -0.18500
C402        C  0.94457511  0.42630272  0.81273443     0.03900
C403        C  0.94183955  0.46494089  0.77913500     0.18100
C404        C  0.92564133  0.51750317  0.77951394    -0.19900
C405        C  0.95556823  0.45079038  0.74577093    -0.21200
C406        C  0.97251288  0.40049313  0.74571605    -0.19700
C407        C  0.97540393  0.36176193  0.77854866     0.19500
C408        C  0.96037885  0.37278990  0.81173095     0.01600
C409        C  0.96154581  0.32935674  0.84243746    -0.14400
C410        C  0.97938705  0.28084579  0.84224847    -0.12100
C411        C  0.99764945  0.27468576  0.81237329     0.01200
C412        C  0.99358860  0.31278087  0.77888918    -0.24300
H413        H  0.90799510  0.50659152  0.87401549     0.09200
H414        H  0.93471563  0.41878150  0.87381707     0.12700
H415        H  0.92310214  0.54598257  0.75356099     0.11500
H416        H  0.95377457  0.47963138  0.71990208     0.12600
H417        H  0.98354735  0.39202938  0.71988891     0.11700
H418        H  0.94887088  0.33170128  0.86708487     0.08800
H419        H  0.98011331  0.24992843  0.86708498     0.12000
H420        H  0.00491689  0.30546445  0.75321481     0.13900
C421        C  0.84629363  0.70590252  0.66328909    -0.01600
C422        C  0.86007183  0.66806346  0.63936698    -0.09600
C423        C  0.85408641  0.66924122  0.59978618    -0.18500
C424        C  0.83406491  0.70860426  0.58314811     0.03900
C425        C  0.81924654  0.74414959  0.60832057     0.18100
C426        C  0.82536266  0.74219382  0.64773790    -0.19900
C427        C  0.79906506  0.78345796  0.59390103    -0.21200
C428        C  0.79381883  0.79005042  0.55461941    -0.19700
C429        C  0.80865160  0.75756510  0.52874874     0.19500
C430        C  0.82865473  0.71557140  0.54253316     0.01600
C431        C  0.84241956  0.68305942  0.51495115    -0.14400
C432        C  0.83714223  0.69339959  0.47544100    -0.12100
C433        C  0.81835995  0.73716451  0.46171626     0.01200
C434        C  0.80348248  0.76717945  0.48906763    -0.24300
H435        H  0.87642015  0.63991486  0.65084277     0.09200
H436        H  0.86600378  0.64033908  0.58276974     0.12700
H437        H  0.81448280  0.77125446  0.66627521     0.11500
H438        H  0.78761027  0.81029860  0.61308705     0.12600
H439        H  0.77834669  0.82166562  0.54433732     0.11700
H440        H  0.85731852  0.64920946  0.52302766     0.08800
H441        H  0.84775211  0.66644663  0.45547557     0.12000
H442        H  0.78729697  0.79743695  0.47987804     0.13900
C443        C  0.82849545  0.89981827  0.81306099    -0.01600
C444        C  0.80844013  0.92013835  0.78684702    -0.09600
C445        C  0.78966462  0.96398242  0.79619531    -0.18500
C446        C  0.79046715  0.98995960  0.83216431     0.03900
C447        C  0.81090787  0.96941560  0.85861027     0.18100
C448        C  0.82937725  0.92450494  0.84909187    -0.19900
C449        C  0.81304508  0.99432929  0.89430604    -0.21200
C450        C  0.79532854  0.03909286  0.90446387    -0.19700
C451        C  0.77481742  0.05987979  0.87936603     0.19500
C452        C  0.77195859  0.03575694  0.84283100     0.01600
C453        C  0.75070134  0.05866238  0.81881494    -0.14400
C454        C  0.73303245  0.10318479  0.83080855    -0.12100
C455        C  0.73578941  0.12593256  0.86710432     0.01200
C456        C  0.75697469  0.10439235  0.89094050    -0.24300
H457        H  0.80722633  0.90203607  0.75877178     0.09200
H458        H  0.77493959  0.97710428  0.77448303     0.12700
H459        H  0.84492909  0.90982952  0.86948524     0.11500
H460        H  0.82861531  0.97919359  0.91453002     0.12600
H461        H  0.79759866  0.05737041  0.93235008     0.11700
H462        H  0.74707356  0.04266809  0.79076716     0.08800
H463        H  0.71672878  0.11875312  0.81204064     0.12000
H464        H  0.75952684  0.12225052  0.91891800     0.13900
C465        C  0.80233148  0.56955881  0.81386592    -0.01600
C466        C  0.77968193  0.57978896  0.83556487    -0.09600
C467        C  0.76200976  0.53581585  0.84265494    -0.18500
C468        C  0.76684255  0.47908027  0.82904888     0.03900
C469        C  0.78876573  0.47021071  0.80446576     0.18100
C470        C  0.80614067  0.51563286  0.79674492    -0.19900
C471        C  0.79402355  0.41507230  0.78963097    -0.21200
C472        C  0.77872679  0.36787095  0.80006005    -0.19700
C473        C  0.75792927  0.37435909  0.82591853     0.19500
C474        C  0.75145858  0.43032145  0.84036090     0.01600
C475        C  0.73059226  0.43445386  0.86685631    -0.14400
C476        C  0.71733199  0.38500596  0.87933990    -0.12100
C477        C  0.72415695  0.32955181  0.86590938     0.01200
C478        C  0.74411071  0.32482602  0.83843707    -0.24300
H479        H  0.77634162  0.62130427  0.84885939     0.09200
H480        H  0.74535108  0.54703835  0.86020892     0.12700
H481        H  0.82379347  0.50730428  0.78019848     0.11500
H482        H  0.81052314  0.40797604  0.77061255     0.12600
H483        H  0.78370318  0.32551588  0.78869259     0.11700
H484        H  0.72429778  0.47505004  0.87912382     0.08800
H485        H  0.70155185  0.39040879  0.89977543     0.12000
H486        H  0.74967656  0.28214668  0.82798013     0.13900
C487        C  0.49310004  0.88141224  0.29768721    -0.01600
C488        C  0.51955080  0.87261227  0.28657722    -0.09600
C489        C  0.53658939  0.91890769  0.28437696    -0.18500
C490        C  0.52789564  0.97647913  0.29294589     0.03900
C491        C  0.50062686  0.98684114  0.29990336     0.18100
C492        C  0.48346368  0.94018276  0.30035739    -0.19900
C493        C  0.49084926  0.04314887  0.30828455    -0.21200
C494        C  0.50776428  0.08876711  0.31172785    -0.19700
C495        C  0.53489484  0.07959018  0.30635442     0.19500
C496        C  0.54529232  0.02364010  0.29588034     0.01600
C497        C  0.57278369  0.01688947  0.29017909    -0.14400
C498        C  0.58925748  0.06284138  0.29607138    -0.12100
C499        C  0.57904136  0.11702999  0.30760953     0.01200
C500        C  0.55179709  0.12560179  0.31221017    -0.24300
H501        H  0.52758819  0.82977176  0.27979089     0.09200
H502        H  0.55665414  0.90781574  0.27678350     0.12700
H503        H  0.46279223  0.94879628  0.30644975     0.11500
H504        H  0.47004815  0.05153147  0.31346908     0.12600
H505        H  0.49960443  0.13131186  0.31932832     0.11700
H506        H  0.58224609  0.97631808  0.28183432     0.08800
H507        H  0.61028575  0.05566792  0.29226063     0.12000
H508        H  0.54385009  0.16766329  0.32107784     0.13900
C509        C  0.48937771  0.76800912  0.30529585    -0.01600
C510        C  0.48018050  0.72291726  0.28323622    -0.09600
C511        C  0.49305088  0.66738900  0.28358516    -0.18500
C512        C  0.51552724  0.65298284  0.30693008     0.03900
C513        C  0.52426200  0.69668396  0.33085646     0.18100
C514        C  0.51106512  0.75273005  0.33026363    -0.19900
C515        C  0.54614520  0.68413406  0.35526806    -0.21200
C516        C  0.55967209  0.62934230  0.35612119    -0.19700
C517        C  0.55175493  0.58554556  0.33250572     0.19500
C518        C  0.52949744  0.59670759  0.30757642     0.01600
C519        C  0.52259587  0.55147775  0.28372001    -0.14400
C520        C  0.53770063  0.49859609  0.28357223    -0.12100
C521        C  0.55974919  0.48805307  0.30776360     0.01200
C522        C  0.56640847  0.53123573  0.33278560    -0.24300
H523        H  0.46224835  0.72865307  0.26636826     0.09200
H524        H  0.48447254  0.63621175  0.26570855     0.12700
H525        H  0.51781769  0.78517012  0.34917755     0.11500
H526        H  0.55295134  0.71707642  0.37373266     0.12600
H527        H  0.57663748  0.62137831  0.37513592     0.11700
H528        H  0.50613824  0.55620773  0.26388576     0.08800
H529        H  0.53247372  0.46607925  0.26368512     0.12000
H530        H  0.58384576  0.52378200  0.35094509     0.13900
C531        C  0.67819904  0.21552919  0.97132563    -0.01600
C532        C  0.68751770  0.17513360  0.00109202    -0.09600
C533        C  0.67947952  0.18068274  0.03923780    -0.18500
C534        C  0.66184359  0.22713904  0.04923768     0.03900
C535        C  0.65181088  0.26676286  0.01897317     0.18100
C536        C  0.65990632  0.26050126  0.98084755    -0.19900
C537        C  0.63430261  0.31367079  0.02696738    -0.21200
C538        C  0.62733729  0.32367826  0.06466436    -0.19700
C539        C  0.63750235  0.28669707  0.09529108     0.19500
C540        C  0.65435855  0.23690372  0.08812323     0.01600
C541        C  0.66324929  0.19995691  0.12029131    -0.14400
C542        C  0.65627327  0.21308049  0.15788886    -0.12100
C543        C  0.64069958  0.26376589  0.16458886     0.01200
C544        C  0.63117244  0.29993664  0.13316204    -0.24300
H545        H  0.70163475  0.13974948  0.99586616     0.09200
H546        H  0.68791651  0.14864829  0.06042169     0.12700
H547        H  0.65253646  0.29219110  0.95835882     0.11500
H548        H  0.62641567  0.34373627  0.00395098     0.12600
H549        H  0.61420481  0.36121227  0.06994870     0.11700
H550        H  0.67567099  0.16081688  0.11734607     0.08800
H551        H  0.66366263  0.18434491  0.18189791     0.12000
H552        H  0.61870248  0.33865901  0.13827228     0.13900
C553        C  0.68964229  0.11219934  0.31218462    -0.01600
C554        C  0.68578545  0.06330203  0.29063317    -0.09600
C555        C  0.70398479  0.01479802  0.29303690    -0.18500
C556        C  0.72662891  0.01413487  0.31719989     0.03900
C557        C  0.73130179  0.06614544  0.33636896     0.18100
C558        C  0.71283198  0.11408146  0.33387904    -0.19900
C559        C  0.75372750  0.06908074  0.35959240    -0.21200
C560        C  0.77090438  0.02024420  0.36621202    -0.19700
C561        C  0.76589997  0.96700885  0.35017980     0.19500
C562        C  0.74411397  0.96328115  0.32466367     0.01600
C563        C  0.74014984  0.90802096  0.30951668    -0.14400
C564        C  0.75599696  0.85796740  0.32143985    -0.12100
C565        C  0.77638710  0.86135679  0.34845529     0.01200
C566        C  0.78190701  0.91678666  0.36117110    -0.24300
H567        H  0.66791092  0.06115061  0.27369628     0.09200
H568        H  0.69940909  0.97778551  0.27671047     0.12700
H569        H  0.71589944  0.15217118  0.35036923     0.11500
H570        H  0.75757938  0.10892843  0.37375393     0.12600
H571        H  0.78765630  0.02349246  0.38532862     0.11700
H572        H  0.72430445  0.90165886  0.28963381     0.08800
H573        H  0.75138390  0.81604080  0.31086564     0.12000
H574        H  0.79820061  0.92061452  0.38103389     0.13900
C575        C  0.76704361  0.65689979  0.35461701    -0.01600
C576        C  0.75045174  0.67140335  0.32270405    -0.09600
C577        C  0.73150764  0.63287427  0.31153029    -0.21300
C578        C  0.72834675  0.57839843  0.33229184     0.03900
C579        C  0.74567124  0.56334882  0.36395589     0.18100
C580        C  0.76502288  0.60152937  0.37403398    -0.19900
C581        C  0.74330052  0.51072094  0.38610500    -0.21200
C582        C  0.72366600  0.47296036  0.37802954    -0.19700
C583        C  0.70621424  0.48615201  0.34705997     0.19500
C584        C  0.70854275  0.53857237  0.32328127     0.01600
C585        C  0.69090962  0.54864800  0.29165633    -0.14400
C586        C  0.67178942  0.50869181  0.28419289    -0.12100
C587        C  0.66918140  0.45777709  0.30819673     0.01200
C588        C  0.68645557  0.44701067  0.33973479    -0.24300
H589        H  0.75149166  0.71329752  0.30683216     0.09200
H590        H  0.71918842  0.64761186  0.28712753     0.12700
H591        H  0.77835094  0.58790962  0.39770254     0.11500
H592        H  0.75646965  0.49911546  0.41035081     0.12600
H593        H  0.72216239  0.43302015  0.39612944     0.11700
H594        H  0.69149163  0.58685014  0.27202760     0.08800
H595        H  0.65858587  0.51835708  0.25976751     0.12000
H596        H  0.68473324  0.40764547  0.35835822     0.13900
C597        C  0.54240415  0.30188179  0.70600916    -0.01600
C598        C  0.56137514  0.34427476  0.70990301    -0.09600
C599        C  0.58359480  0.33340658  0.73412748    -0.18500
C600        C  0.58791375  0.27920852  0.75570704     0.03900
C601        C  0.56842718  0.23729383  0.75301451     0.18100
C602        C  0.54659396  0.24830039  0.72824161    -0.19900
C603        C  0.57103639  0.18335478  0.77434924    -0.21200
C604        C  0.59253949  0.17007759  0.79864630    -0.19700
C605        C  0.61238712  0.20972593  0.80158373     0.19500
C606        C  0.61075505  0.26451176  0.77968835     0.01600
C607        C  0.63212974  0.30152095  0.78277183    -0.14400
C608        C  0.65352906  0.28564497  0.80774266    -0.12100
C609        C  0.65411986  0.23297735  0.83061911     0.01200
C610        C  0.63367665  0.19497952  0.82690179    -0.24300
H611        H  0.55955150  0.38537088  0.69266273     0.09200
H612        H  0.59725024  0.36792815  0.73505062     0.12700
H613        H  0.53391763  0.21241049  0.72509300     0.11500
H614        H  0.55618996  0.15118473  0.77244562     0.12600
H615        H  0.59372746  0.12821302  0.81511311     0.11700
H616        H  0.63268542  0.34311308  0.76651106     0.08800
H617        H  0.66907642  0.31590389  0.81052949     0.12000
H618        H  0.63410679  0.15417713  0.84457283     0.13900
C619        C  0.42997617  0.99713742  0.68607883    -0.01600
C620        C  0.43213908  0.03090873  0.71843005    -0.09600
C621        C  0.44569764  0.08254655  0.71677865    -0.18500
C622        C  0.45769063  0.10289332  0.68241423     0.03900
C623        C  0.45614848  0.06800817  0.64984477     0.18100
C624        C  0.44231358  0.01584248  0.65186239    -0.19900
C625        C  0.46841646  0.08554051  0.61546582    -0.21200
C626        C  0.48264614  0.13613929  0.61301399    -0.19700
C627        C  0.48461958  0.17118846  0.64466299     0.19500
C628        C  0.47153456  0.15602255  0.67943324     0.01600
C629        C  0.47256374  0.19521614  0.70943497    -0.14400
C630        C  0.48754217  0.24486939  0.70601979    -0.12100
C631        C  0.50300633  0.25669689  0.67330654     0.01200
C632        C  0.49980297  0.22110175  0.64171938    -0.24300
H633        H  0.42312491  0.01758661  0.74545940     0.09200
H634        H  0.44662837  0.10528364  0.74306190     0.12700
H635        H  0.44082779  0.99035853  0.62660409     0.11500
H636        H  0.46732091  0.05947919  0.59043329     0.12600
H637        H  0.49231774  0.14776461  0.58617313     0.11700
H638        H  0.46194073  0.18885334  0.73592333     0.08800
H639        H  0.48809651  0.27311455  0.73001296     0.12000
H640        H  0.50886458  0.23180131  0.61437438     0.13900
C641        C  0.50202193  0.36472059  0.67483998    -0.01600
C642        C  0.48208085  0.37304085  0.64636251    -0.09600
C643        C  0.46371042  0.42033136  0.64572418    -0.18500
C644        C  0.46431579  0.46284311  0.67359848     0.03900
C645        C  0.48411083  0.45515945  0.70281082     0.18100
C646        C  0.50234806  0.40589962  0.70374860    -0.19900
C647        C  0.48564506  0.49712017  0.73064799    -0.21200
C648        C  0.46827679  0.54676287  0.72965911    -0.19700
C649        C  0.44858288  0.55561468  0.70112189     0.19500
C650        C  0.44618278  0.51307282  0.67304922     0.01600
C651        C  0.42578027  0.52270606  0.64534098    -0.14400
C652        C  0.40915581  0.57299562  0.64455288    -0.12100
C653        C  0.41183528  0.61640312  0.67123251     0.01200
C654        C  0.43143464  0.60684049  0.70008229    -0.24300
H655        H  0.48089288  0.34246909  0.62374848     0.09200
H656        H  0.44956476  0.42259376  0.62240557     0.12700
H657        H  0.51664886  0.40032917  0.72701386     0.11500
H658        H  0.50062979  0.49192065  0.75311156     0.12600
H659        H  0.47032181  0.57855626  0.75135186     0.11700
H660        H  0.42201540  0.49230179  0.62362141     0.08800
H661        H  0.39399707  0.57779267  0.62233506     0.12000
H662        H  0.43370922  0.63956058  0.72111238     0.13900
C663        C  0.53796288  0.31342585  0.63539256    -0.01600
C664        C  0.55526860  0.26555938  0.62753389    -0.09600
C665        C  0.56963611  0.26476854  0.59360758    -0.18500
C666        C  0.56776398  0.31267510  0.56597674     0.03900
C667        C  0.55232249  0.36340808  0.57519101     0.18100
C668        C  0.53801394  0.36377849  0.60970607    -0.19900
C669        C  0.55073443  0.41303793  0.54941384    -0.21200
C670        C  0.56294018  0.41209435  0.51368763    -0.19700
C671        C  0.57694833  0.36141192  0.50275525     0.19500
C672        C  0.58007597  0.31143870  0.52918089     0.01600
C673        C  0.59434382  0.26128884  0.51693024    -0.14400
C674        C  0.60341596  0.25932286  0.47933844    -0.12100
C675        C  0.59913055  0.30735066  0.45271553     0.01200
C676        C  0.58682488  0.35929500  0.46498803    -0.24300
H677        H  0.55694490  0.22719003  0.64741109     0.09200
H678        H  0.58177112  0.22552747  0.58977194     0.12700
H679        H  0.52686493  0.40363681  0.61598540     0.11500
H680        H  0.53933962  0.45234097  0.55646855     0.12600
H681        H  0.56067168  0.45061825  0.49398195     0.11700
H682        H  0.59801160  0.22191196  0.53515249     0.08800
H683        H  0.61334210  0.21908142  0.47071033     0.12000
H684        H  0.58352336  0.39671583  0.44455162     0.13900
C685        C  0.96028615  0.72029077  0.20007536    -0.01600
C686        C  0.95378336  0.77298083  0.21817720    -0.09600
C687        C  0.93161945  0.77932918  0.24123797    -0.18500
C688        C  0.91415213  0.73373100  0.24691839     0.03900
C689        C  0.91957853  0.68146199  0.22743227     0.18100
C690        C  0.94212933  0.67553395  0.20410402    -0.19900
C691        C  0.90239787  0.63545373  0.23133917    -0.21200
C692        C  0.88040157  0.63964702  0.25496941    -0.19700
C693        C  0.87489402  0.69002706  0.27533786     0.19500
C694        C  0.89153606  0.73819946  0.27121082     0.01600
C695        C  0.88514276  0.78816800  0.29235366    -0.14400
C696        C  0.86391883  0.78913881  0.31764286    -0.12100
C697        C  0.84804873  0.74110019  0.32236499     0.01200
C698        C  0.85325017  0.69204224  0.30058700    -0.24300
H699        H  0.96506744  0.81148906  0.21359436     0.09200
H700        H  0.92850457  0.82122742  0.25370262     0.12700
H701        H  0.94552130  0.63593626  0.18866329     0.11500
H702        H  0.90617395  0.59555460  0.21636737     0.12600
H703        H  0.86779014  0.60281663  0.25774130     0.11700
H704        H  0.89653756  0.82669995  0.29082520     0.08800
H705        H  0.86015873  0.82733245  0.33432457     0.12000
H706        H  0.84105109  0.65460108  0.30443311     0.13900
C707        C  0.00247965  0.65975027  0.17757388    -0.01600
C708        C  0.00074220  0.61645297  0.20799405    -0.09600
C709        C  0.01830846  0.56639157  0.21087862    -0.18500
C710        C  0.03874709  0.55820556  0.18389554     0.03900
C711        C  0.04117222  0.60331742  0.15441346     0.18100
C712        C  0.02348580  0.65260186  0.15174755    -0.19900
C713        C  0.06114020  0.59910549  0.12715832    -0.21200
C714        C  0.07858784  0.55040965  0.12792345    -0.19700
C715        C  0.07648957  0.50432379  0.15583448     0.19500
C716        C  0.05681777  0.50730339  0.18459408     0.01600
C717        C  0.05607707  0.45881200  0.21202061    -0.14400
C718        C  0.07359638  0.40899809  0.20998557    -0.12100
C719        C  0.09235737  0.40592684  0.18060277     0.01200
C720        C  0.09383484  0.45475681  0.15433377    -0.24300
H721        H  0.98599591  0.62082011  0.22996361     0.09200
H722        H  0.01554540  0.53478276  0.23459370     0.12700
H723        H  0.02568274  0.68567606  0.12848266     0.11500
H724        H  0.06315058  0.63359882  0.10476031     0.12600
H725        H  0.09364523  0.54841185  0.10606233     0.11700
H726        H  0.04187143  0.45793515  0.23490004     0.08800
H727        H  0.07204681  0.37235649  0.23091223     0.12000
H728        H  0.10846217  0.45406627  0.13180588     0.13900
C729        C  0.00191412  0.76784520  0.17400076    -0.01600
C730        C  0.01380084  0.77742268  0.20970544    -0.09600
C731        C  0.02796259  0.82737626  0.21486860    -0.18500
C732        C  0.03160013  0.86918221  0.18398175     0.03900
C733        C  0.02228479  0.85620146  0.14697185     0.18100
C734        C  0.00827244  0.80559954  0.14217709    -0.19900
C735        C  0.02664241  0.89428818  0.11487189    -0.21200
C736        C  0.03961953  0.94579178  0.11884115    -0.19700
C737        C  0.04847119  0.96077038  0.15504244     0.19500
C738        C  0.04447685  0.92282983  0.18822207     0.01600
C739        C  0.05338557  0.94054044  0.22416887    -0.14400
C740        C  0.06675176  0.99213593  0.22672923    -0.12100
C741        C  0.07152621  0.02841469  0.19376643     0.01200
C742        C  0.06174145  0.01302093  0.15809697    -0.24300
H743        H  0.01088889  0.74731562  0.23437124     0.09200
H744        H  0.03567045  0.83219102  0.24343832     0.12700
H745        H  0.00236219  0.79634380  0.11329122     0.11500
H746        H  0.01975602  0.88442306  0.08646574     0.12600
H747        H  0.04264781  0.97427137  0.09339466     0.11700
H748        H  0.05046360  0.91530557  0.25082297     0.08800
H749        H  0.07378926  0.00317763  0.25479561     0.12000
H750        H  0.06534308  0.04052898  0.13239172     0.13900
C751        C  0.91173514  0.72599040  0.94278557    -0.01600
C752        C  0.91163895  0.77814143  0.96214970    -0.09600
C753        C  0.92273642  0.77863348  0.99922287    -0.18500
C754        C  0.93438602  0.72668963  0.01791544     0.03900
C755        C  0.93536104  0.67472012  0.99726189     0.18100
C756        C  0.92400871  0.67479026  0.96045384    -0.19900
C757        C  0.94750444  0.62259054  0.01347755    -0.21200
C758        C  0.95895004  0.62089493  0.04991673    -0.19700
C759        C  0.95803317  0.67094965  0.07138250     0.19500
C760        C  0.94524646  0.72420191  0.05613718     0.01600
C761        C  0.94324627  0.77185092  0.08028661    -0.14400
C762        C  0.95458134  0.76751121  0.11718876    -0.12100
C763        C  0.96960222  0.71681742  0.13092947     0.01200
C764        C  0.96983136  0.66764558  0.10814435    -0.24300
H765        H  0.90249183  0.81835591  0.94897074     0.09200
H766        H  0.92201112  0.82024262  0.01248470     0.12700
H767        H  0.92466855  0.63427474  0.94553331     0.11500
H768        H  0.94832991  0.58288161  0.99773371     0.12600
H769        H  0.96847958  0.57999073  0.06147188     0.11700
H770        H  0.93270868  0.81274370  0.07166857     0.08800
H771        H  0.95250436  0.80517533  0.13472675     0.12000
H772        H  0.97887065  0.62590970  0.11888513     0.13900
loop_ 
_geom_bond_atom_site_label_1 
_geom_bond_atom_site_label_2 
_geom_bond_distance 
_geom_bond_site_symmetry_2 
_ccdc_geom_bond_type 
C1          C685   1.564       .  S
C1          C707   1.563   1_655  S
C1          C729   1.561   1_655  S
C1          C763   1.555       .  S
C2          C597   1.565       .  S
C2          C631   1.565       .  S
C2          C641   1.558       .  S
C2          C663   1.556       .  S
O3           Ni9   1.916       .  S
O3           C24   1.272       .  A
O4          Ni27   1.903       .  S
O4           C13   1.268       .  A
O5           Ni9   1.893       .  S
O5          Ni27   1.895       .  S
O5          Ni21   1.918       .  S
O5           H28   0.966       .  S
C6           O23   1.278       .  A
C6           O15   1.276       .  A
C6          C521   1.480       .  S
O7          Ni26   1.935       .  S
O7           C13   1.275       .  A
O8          Ni26   1.914       .  S
O8           C10   1.273       .  A
Ni9          O12   1.918       .  S
Ni9          O14   1.919       .  S
C10          O20   1.277       .  A
C10         C587   1.488       .  S
O11         Ni27   1.940       .  S
O11          C17   1.281       .  A
O12          C17   1.277       .  A
C13         C543   1.476       .  S
O14          C16   1.270       .  A
O15         Ni26   1.924       .  S
C16          O22   1.271       .  A
C16         C499   1.478       .  S
C17         C553   1.476       .  S
H18          O19   0.966       .  S
O19         Ni27   1.925       .  S
O19         Ni21   1.914       .  S
O19         Ni26   1.905       .  S
O20         Ni21   1.940       .  S
Ni21         O25   1.924       .  S
Ni21         O23   1.932       .  S
O22         Ni27   1.933       .  S
C24          O25   1.274       .  A
C24         C675   1.479       .  S
C29         C531   1.533       .  S
C29          C30   1.536       .  S
C29          C35   1.538       .  S
C29          C33   1.535       .  S
C30          H37   1.086       .  S
C30          C31   1.368       .  D
C31          C32   1.542       .  S
C31         C477   1.491       .  S
C32          C36   1.552       .  S
C32          C34   1.545       .  S
C32          H38   1.110       .  S
C33          H39   1.087       .  S
C33          C34   1.366       .  D
C34         C609   1.486       .  S
C35          H40   1.081       .  S
C35          C36   1.368       .  D
C36         C455   1.493       .  S
O41         Ni47   1.927       .  S
O41          C62   1.273       .  A
O42         Ni65   1.925       .  S
O42          C51   1.274       .  A
O43         Ni47   1.894       .  S
O43         Ni65   1.907       .  S
O43         Ni59   1.922       .  S
O43          H66   0.965       .  S
C44          O61   1.285       .  A
C44          O53   1.276       .  A
C44         C465   1.477       .  S
O45         Ni64   1.915       .  S
O45          C51   1.270       .  A
O46         Ni64   1.901       .  S
O46          C48   1.269       .  A
Ni47         O50   1.933       .  S
Ni47         O52   1.910       .  S
C48          O58   1.280       .  A
C48         C399   1.498       .  S
O49         Ni65   1.927       .  S
O49          C55   1.282       .  A
O50          C55   1.280       .  A
C51         C751   1.481       .  S
O52          C54   1.268       .  A
O53         Ni64   1.909       .  S
C54          O60   1.275       .  A
C54         C443   1.492       .  S
C55         C377   1.491       .  S
H56          O57   0.966       .  S
O57         Ni65   1.914       .  S
O57         Ni59   1.896       .  S
O57         Ni64   1.871       .  S
O58         Ni59   1.957       .  S
Ni59         O63   1.920       .  S
Ni59         O61   1.954       .  S
O60         Ni65   1.943       .  S
C62          O63   1.273       .  A
C62         C421   1.477       .  S
C67         C433   1.532       .  S
C67          C68   1.524       .  S
C67          C73   1.538       .  S
C67          C71   1.538       .  S
C68          H75   1.085       .  S
C68          C69   1.368       .  D
C69          C70   1.553       .  S
C69         C575   1.500       .  S
C70          C74   1.551       .  S
C70          C72   1.546       .  S
C70          H76   1.109       .  S
C71          H77   1.086       .  S
C71          C72   1.368       .  D
C72         C697   1.485       .  S
C73          H78   1.083       .  S
C73          C74   1.369       .  D
C74         C565   1.496       .  S
C79         C345   1.564       .  S
C79         C367   1.564       .  S
C79         C487   1.561       .  S
C79         C509   1.569       .  S
C80         C301   1.554       .  S
C80         C311   1.559       .  S
C80         C389   1.558       .  S
C80         C411   1.563   1_455  S
O81         Ni87   1.918       .  S
O81         C102   1.271       .  A
O82        Ni105   1.912       .  S
O82          C91   1.272       .  A
O83         Ni87   1.876       .  S
O83        Ni105   1.894       .  S
O83         Ni99   1.915       .  S
O83         H106   0.966       .  S
C84         O101   1.282       .  A
C84          O93   1.280       .  A
C84         C741   1.486       .  S
O85        Ni104   1.935       .  S
O85          C91   1.275       .  A
O86        Ni104   1.918       .  S
O86          C88   1.271       .  A
Ni87         O90   1.916       .  S
Ni87         O92   1.910       .  S
C88          O98   1.274       .  A
C88         C279   1.488       .  S
O89        Ni105   1.942       .  S
O89          C95   1.282       .  A
O90          C95   1.278       .  A
C91         C223   1.488       .  S
O92          C94   1.270       .  A
O93        Ni104   1.931       .  S
C94         O100   1.278       .  A
C94         C719   1.500       .  S
C95         C245   1.475       .  S
H96          O97   0.966       .  S
O97        Ni105   1.915       .  S
O97         Ni99   1.912       .  S
O97        Ni104   1.899       .  S
O98         Ni99   1.941       .  S
Ni99        O103   1.935       .  S
Ni99        O101   1.924       .  S
O100       Ni105   1.954       .  S
C102        O103   1.276       .  A
C102        C323   1.487       .  S
C107        C191   1.526       .  S
C107        C108   1.524       .  S
C107        C113   1.541       .  S
C107        C111   1.534       .  S
C108        H115   1.085       .  S
C108        C109   1.369       .  D
C109        C110   1.553       .  S
C109        C289   1.499       .  S
C110        C114   1.549       .  S
C110        C112   1.541       .  S
C110        H116   1.109       .  S
C111        H117   1.087       .  S
C111        C112   1.360       .  D
C112        C213   1.474       .  S
C113        H118   1.083       .  S
C113        C114   1.369       .  D
C114        C235   1.491       .  S
O119       Ni125   1.903       .  S
O119        C140   1.266       .  A
O120       Ni143   1.939       .  S
O120        C129   1.277       .  A
O121       Ni125   1.866       .  S
O121       Ni143   1.897       .  S
O121       Ni137   1.916       .  S
O121        H144   0.966       .  S
C122        O139   1.280       .  A
C122        O131   1.278       .  A
C122        C619   1.490       .  S
O123       Ni142   1.926       .  S
O123        C129   1.272       .  A
O124       Ni142   1.906       .  S
O124        C126   1.269       .  A
Ni125       O128   1.899       .  S
Ni125       O130   1.899       .  S
C126        O136   1.276       .  A
C126        C201   1.492       .  S
O127       Ni143   1.954       .  S
O127        C133   1.288       .  A
O128        C133   1.277       .  A
C129        C169   1.492       .  S
O130        C132   1.268       .  A
O131       Ni142   1.928       .  S
C132        O138   1.279       .  A
C132        C653   1.496       .  S
C133        C179   1.475       .  S
H134        O135   0.966       .  S
O135       Ni143   1.928       .  S
O135       Ni137   1.922       .  S
O135       Ni142   1.896       .  S
O136       Ni137   1.949       .  S
Ni137       O141   1.944       .  S
Ni137       O139   1.926       .  S
O138       Ni143   1.957       .  S
C140        O141   1.277       .  A
C140        C355   1.483       .  S
C145        C257   1.535       .  S
C145        C146   1.533       .  S
C145        C151   1.541       .  S
C145        C149   1.538       .  S
C146        H153   1.086       .  S
C146        C147   1.366       .  D
C147        C148   1.545       .  S
C147        C333   1.486       .  S
C148        C152   1.563       .  S
C148        C150   1.543       .  S
C148        H154   1.107       .  S
C149        H155   1.085       .  S
C149        C150   1.361       .  D
C150        C267   1.484       .  S
C151        H156   1.080       .  S
C151        C152   1.374       .  D
C152        C157   1.518       .  S
C157        C158   1.404       .  A
C157        C162   1.417   1_554  A
C158        C159   1.403   1_554  A
C158        H171   1.080       .  S
C159        C160   1.417       .  A
C159        H172   1.077       .  S
C160        C166   1.438       .  A
C160        C161   1.417       .  A
C161        C163   1.404       .  A
C161        C162   1.413       .  A
C162        H173   1.080   1_556  S
C163        C164   1.396       .  A
C163        H174   1.084       .  S
C164        C165   1.401       .  A
C164        H175   1.084       .  S
C165        C166   1.427       .  A
C165        C170   1.420       .  A
C166        C167   1.411       .  A
C167        C168   1.395       .  A
C167        H176   1.077       .  S
C168        C169   1.403       .  A
C168        H177   1.084       .  S
C169        C170   1.405       .  A
C170        H178   1.084       .  S
C179        C180   1.401       .  A
C179        C184   1.400       .  A
C180        C181   1.390       .  A
C180        H193   1.084       .  S
C181        C182   1.411       .  A
C181        H194   1.077       .  S
C182        C188   1.428       .  A
C182        C183   1.424       .  A
C183        C185   1.399       .  A
C183        C184   1.409       .  A
C184        H195   1.084       .  S
C185        C186   1.392       .  A
C185        H196   1.084       .  S
C186        C187   1.401       .  A
C186        H197   1.084       .  S
C187        C188   1.419       .  A
C187        C192   1.404       .  A
C188        C189   1.414       .  A
C189        C190   1.394       .  A
C189        H198   1.077       .  S
C190        C191   1.403       .  A
C190        H199   1.080       .  S
C191        C192   1.408       .  A
C192        H200   1.084       .  S
C201        C202   1.404       .  A
C201        C206   1.404       .  A
C202        C203   1.405   1_565  A
C202        H215   1.083       .  S
C203        C204   1.418       .  A
C203        H216   1.078       .  S
C204        C210   1.435       .  A
C204        C205   1.421       .  A
C205        C207   1.399       .  A
C205        C206   1.402   1_545  A
C206        H217   1.084       .  S
C207        C208   1.387       .  A
C207        H218   1.084       .  S
C208        C209   1.397       .  A
C208        H219   1.084       .  S
C209        C210   1.425       .  A
C209        C214   1.403       .  A
C210        C211   1.417       .  A
C211        C212   1.402       .  A
C211        H220   1.078       .  S
C212        C213   1.399       .  A
C212        H221   1.083       .  S
C213        C214   1.395       .  A
C214        H222   1.085       .  S
C223        C224   1.403       .  A
C223        C228   1.403       .  A
C224        C225   1.395       .  A
C224        H237   1.083       .  S
C225        C226   1.413       .  A
C225        H238   1.077       .  S
C226        C232   1.432       .  A
C226        C227   1.424       .  A
C227        C229   1.400       .  A
C227        C228   1.410       .  A
C228        H239   1.084       .  S
C229        C230   1.392       .  A
C229        H240   1.084       .  S
C230        C231   1.401       .  A
C230        H241   1.084       .  S
C231        C232   1.421       .  A
C231        C236   1.407       .  A
C232        C233   1.416       .  A
C233        C234   1.398       .  A
C233        H242   1.077       .  S
C234        C235   1.399       .  A
C234        H243   1.082       .  S
C235        C236   1.405       .  A
C236        H244   1.084       .  S
C245        C246   1.399       .  A
C245        C250   1.400       .  A
C246        C247   1.396       .  A
C246        H259   1.084       .  S
C247        C248   1.414       .  A
C247        H260   1.077       .  S
C248        C254   1.430       .  A
C248        C249   1.424       .  A
C249        C251   1.400       .  A
C249        C250   1.408       .  A
C250        H261   1.085       .  S
C251        C252   1.392       .  A
C251        H262   1.084       .  S
C252        C253   1.401       .  A
C252        H263   1.084       .  S
C253        C254   1.419       .  A
C253        C258   1.407       .  A
C254        C255   1.414       .  A
C255        C256   1.398       .  A
C255        H264   1.078       .  S
C256        C257   1.405       .  A
C256        H265   1.081       .  S
C257        C258   1.409       .  A
C258        H266   1.083       .  S
C267        C268   1.399       .  A
C267        C272   1.401       .  A
C268        C269   1.401       .  A
C268        H281   1.083       .  S
C269        C270   1.417       .  A
C269        H282   1.078       .  S
C270        C276   1.434       .  A
C270        C271   1.423       .  A
C271        C273   1.400       .  A
C271        C272   1.408       .  A
C272        H283   1.085       .  S
C273        C274   1.392       .  A
C273        H284   1.084       .  S
C274        C275   1.400       .  A
C274        H285   1.084       .  S
C275        C276   1.423       .  A
C275        C280   1.409   1_565  A
C276        C277   1.416       .  A
C277        C278   1.401   1_565  A
C277        H286   1.078       .  S
C278        C279   1.402       .  A
C278        H287   1.083       .  S
C279        C280   1.404       .  A
C280        H288   1.085       .  S
C289        C290   1.405       .  A
C289        C294   1.407       .  A
C290        C291   1.392       .  A
C290        H303   1.082       .  S
C291        C292   1.409       .  A
C291        H304   1.079       .  S
C292        C298   1.428       .  A
C292        C293   1.421       .  A
C293        C295   1.402       .  A
C293        C294   1.415       .  A
C294        H305   1.083       .  S
C295        C296   1.398       .  A
C295        H306   1.084       .  S
C296        C297   1.403       .  A
C296        H307   1.084       .  S
C297        C298   1.419       .  A
C297        C302   1.414       .  A
C298        C299   1.409       .  A
C299        C300   1.391       .  A
C299        H308   1.079       .  S
C300        C301   1.409       .  A
C300        H309   1.083       .  S
C301        C302   1.414       .  A
C302        H310   1.082       .  S
C311        C312   1.411       .  A
C311        C316   1.409       .  A
C312        C313   1.399       .  A
C312        H325   1.083       .  S
C313        C314   1.412       .  A
C313        H326   1.078       .  S
C314        C320   1.435       .  A
C314        C315   1.423       .  A
C315        C317   1.398       .  A
C315        C316   1.406       .  A
C316        H327   1.081       .  S
C317        C318   1.388       .  A
C317        H328   1.084       .  S
C318        C319   1.399       .  A
C318        H329   1.084       .  S
C319        C320   1.420       .  A
C319        C324   1.402   1_556  A
C320        C321   1.420       .  A
C321        C322   1.406   1_556  A
C321        H330   1.078       .  S
C322        C323   1.401       .  A
C322        H331   1.083       .  S
C323        C324   1.404       .  A
C324        H332   1.085       .  S
C333        C334   1.399       .  A
C333        C338   1.400       .  A
C334        C335   1.405       .  A
C334        H347   1.083       .  S
C335        C336   1.418       .  A
C335        H348   1.078       .  S
C336        C342   1.437       .  A
C336        C337   1.424       .  A
C337        C339   1.399       .  A
C337        C338   1.408       .  A
C338        H349   1.085       .  S
C339        C340   1.390       .  A
C339        H350   1.084       .  S
C340        C341   1.400       .  A
C340        H351   1.084       .  S
C341        C342   1.421       .  A
C341        C346   1.407       .  A
C342        C343   1.415       .  A
C343        C344   1.404       .  A
C343        H352   1.078       .  S
C344        C345   1.411       .  A
C344        H353   1.083       .  S
C345        C346   1.412       .  A
C346        H354   1.081       .  S
C355        C356   1.403       .  A
C355        C360   1.402       .  A
C356        C357   1.391       .  A
C356        H369   1.084       .  S
C357        C358   1.410       .  A
C357        H370   1.077       .  S
C358        C364   1.432       .  A
C358        C359   1.426       .  A
C359        C361   1.400       .  A
C359        C360   1.415       .  A
C360        H371   1.084       .  S
C361        C362   1.394       .  A
C361        H372   1.084       .  S
C362        C363   1.403       .  A
C362        H373   1.084       .  S
C363        C364   1.418       .  A
C363        C368   1.410       .  A
C364        C365   1.413       .  A
C365        C366   1.394       .  A
C365        H374   1.077       .  S
C366        C367   1.410       .  A
C366        H375   1.083       .  S
C367        C368   1.416       .  A
C368        H376   1.078       .  S
C377        C378   1.402       .  A
C377        C382   1.407       .  A
C378        C379   1.402       .  A
C378        H391   1.083       .  S
C379        C380   1.418   1_565  A
C379        H392   1.077       .  S
C380        C386   1.434       .  A
C380        C381   1.420   1_545  A
C381        C383   1.401   1_565  A
C381        C382   1.407       .  A
C382        H393   1.084       .  S
C383        C384   1.392       .  A
C383        H394   1.084       .  S
C384        C385   1.400       .  A
C384        H395   1.084       .  S
C385        C386   1.423       .  A
C385        C390   1.412       .  A
C386        C387   1.409       .  A
C387        C388   1.395       .  A
C387        H396   1.077       .  S
C388        C389   1.413   1_655  A
C388        H397   1.081   1_655  S
C389        C390   1.409   1_455  A
C390        H398   1.084   1_655  S
C399        C400   1.407       .  A
C399        C404   1.409       .  A
C400        C401   1.389       .  A
C400        H413   1.083       .  S
C401        C402   1.406       .  A
C401        H414   1.078       .  S
C402        C408   1.430       .  A
C402        C403   1.424       .  A
C403        C405   1.403       .  A
C403        C404   1.421       .  A
C404        H415   1.084       .  S
C405        C406   1.400       .  A
C405        H416   1.084       .  S
C406        C407   1.405       .  A
C406        H417   1.084       .  S
C407        C408   1.416       .  A
C407        C412   1.413       .  A
C408        C409   1.413       .  A
C409        C410   1.395       .  A
C409        H418   1.078       .  S
C410        C411   1.407       .  A
C410        H419   1.082       .  S
C411        C412   1.419       .  A
C412        H420   1.082   1_655  S
C421        C422   1.399       .  A
C421        C426   1.400       .  A
C422        C423   1.404       .  A
C422        H435   1.083       .  S
C423        C424   1.420       .  A
C423        H436   1.078       .  S
C424        C430   1.434       .  A
C424        C425   1.421       .  A
C425        C427   1.398       .  A
C425        C426   1.399       .  A
C426        H437   1.085       .  S
C427        C428   1.386       .  A
C427        H438   1.084       .  S
C428        C429   1.399       .  A
C428        H439   1.084       .  S
C429        C430   1.422       .  A
C429        C434   1.404       .  A
C430        C431   1.413       .  A
C431        C432   1.401       .  A
C431        H440   1.078       .  S
C432        C433   1.406       .  A
C432        H441   1.082       .  S
C433        C434   1.406       .  A
C434        H442   1.081       .  S
C443        C444   1.404       .  A
C443        C448   1.403       .  A
C444        C445   1.401       .  A
C444        H457   1.083       .  S
C445        C446   1.414       .  A
C445        H458   1.078       .  S
C446        C452   1.437   1_565  A
C446        C447   1.425       .  A
C447        C449   1.399       .  A
C447        C448   1.410       .  A
C448        H459   1.084       .  S
C449        C450   1.390   1_565  A
C449        H460   1.084       .  S
C450        C451   1.400       .  A
C450        H461   1.084       .  S
C451        C452   1.421       .  A
C451        C456   1.405       .  A
C452        C453   1.420       .  A
C453        C454   1.405       .  A
C453        H462   1.078       .  S
C454        C455   1.399       .  A
C454        H463   1.083       .  S
C455        C456   1.404       .  A
C456        H464   1.084       .  S
C465        C466   1.399       .  A
C465        C470   1.402       .  A
C466        C467   1.394       .  A
C466        H479   1.084       .  S
C467        C468   1.414       .  A
C467        H480   1.077       .  S
C468        C474   1.432       .  A
C468        C469   1.423       .  A
C469        C471   1.401       .  A
C469        C470   1.412       .  A
C470        H481   1.085       .  S
C471        C472   1.394       .  A
C471        H482   1.084       .  S
C472        C473   1.401       .  A
C472        H483   1.084       .  S
C473        C474   1.423       .  A
C473        C478   1.411       .  A
C474        C475   1.414       .  A
C475        C476   1.394       .  A
C475        H484   1.077       .  S
C476        C477   1.402       .  A
C476        H485   1.083       .  S
C477        C478   1.403       .  A
C478        H486   1.084       .  S
C487        C488   1.410       .  A
C487        C492   1.413       .  A
C488        C489   1.400       .  A
C488        H501   1.080       .  S
C489        C490   1.413       .  A
C489        H502   1.077       .  S
C490        C496   1.435   1_565  A
C490        C491   1.420       .  A
C491        C493   1.401   1_565  A
C491        C492   1.411       .  A
C492        H503   1.084       .  S
C493        C494   1.394       .  A
C493        H504   1.084       .  S
C494        C495   1.401       .  A
C494        H505   1.084       .  S
C495        C496   1.425       .  A
C495        C500   1.413       .  A
C496        C497   1.416       .  A
C497        C498   1.398       .  A
C497        H506   1.077   1_545  S
C498        C499   1.398       .  A
C498        H507   1.084       .  S
C499        C500   1.401       .  A
C500        H508   1.084       .  S
C509        C510   1.414       .  A
C509        C514   1.414       .  A
C510        C511   1.396       .  A
C510        H523   1.078       .  S
C511        C512   1.410       .  A
C511        H524   1.077       .  S
C512        C518   1.435       .  A
C512        C513   1.420       .  A
C513        C515   1.401       .  A
C513        C514   1.413       .  A
C514        H525   1.084       .  S
C515        C516   1.395       .  A
C515        H526   1.084       .  S
C516        C517   1.401       .  A
C516        H527   1.084       .  S
C517        C518   1.423       .  A
C517        C522   1.413       .  A
C518        C519   1.416       .  A
C519        C520   1.397       .  A
C519        H528   1.077       .  S
C520        C521   1.398       .  A
C520        H529   1.084       .  S
C521        C522   1.403       .  A
C522        H530   1.085       .  S
C531        C532   1.408   1_556  A
C531        C536   1.405       .  A
C532        C533   1.401       .  A
C532        H545   1.077   1_554  S
C533        C534   1.414       .  A
C533        H546   1.078       .  S
C534        C540   1.433       .  A
C534        C535   1.421       .  A
C535        C537   1.399       .  A
C535        C536   1.403   1_554  A
C536        H547   1.085       .  S
C537        C538   1.388       .  A
C537        H548   1.084       .  S
C538        C539   1.398       .  A
C538        H549   1.084       .  S
C539        C540   1.423       .  A
C539        C544   1.403       .  A
C540        C541   1.417       .  A
C541        C542   1.401       .  A
C541        H550   1.078       .  S
C542        C543   1.400       .  A
C542        H551   1.084       .  S
C543        C544   1.398       .  A
C544        H552   1.085       .  S
C553        C554   1.400       .  A
C553        C558   1.398       .  A
C554        C555   1.404       .  A
C554        H567   1.083       .  S
C555        C556   1.418       .  A
C555        H568   1.078   1_545  S
C556        C562   1.436   1_545  A
C556        C557   1.423       .  A
C557        C559   1.398       .  A
C557        C558   1.403       .  A
C558        H569   1.085       .  S
C559        C560   1.388       .  A
C559        H570   1.084       .  S
C560        C561   1.399   1_545  A
C560        H571   1.084       .  S
C561        C562   1.422       .  A
C561        C566   1.404       .  A
C562        C563   1.417       .  A
C563        C564   1.404       .  A
C563        H572   1.078       .  S
C564        C565   1.401       .  A
C564        H573   1.080       .  S
C565        C566   1.404       .  A
C566        H574   1.084       .  S
C575        C576   1.402       .  A
C575        C580   1.407       .  A
C576        C577   1.404       .  A
C576        H589   1.080       .  S
C577        C578   1.418       .  A
C577        H590   1.078       .  S
C578        C584   1.435       .  A
C578        C579   1.419       .  A
C579        C581   1.400       .  A
C579        C580   1.403       .  A
C580        H591   1.083       .  S
C581        C582   1.389       .  A
C581        H592   1.084       .  S
C582        C583   1.398       .  A
C582        H593   1.084       .  S
C583        C584   1.425       .  A
C583        C588   1.409       .  A
C584        C585   1.413       .  A
C585        C586   1.399       .  A
C585        H594   1.078       .  S
C586        C587   1.404       .  A
C586        H595   1.083       .  S
C587        C588   1.401       .  A
C588        H596   1.085       .  S
C597        C598   1.412       .  A
C597        C602   1.414       .  A
C598        C599   1.407       .  A
C598        H611   1.083       .  S
C599        C600   1.416       .  A
C599        H612   1.078       .  S
C600        C606   1.438       .  A
C600        C601   1.418       .  A
C601        C603   1.400       .  A
C601        C602   1.403       .  A
C602        H613   1.078       .  S
C603        C604   1.386       .  A
C603        H614   1.084       .  S
C604        C605   1.397       .  A
C604        H615   1.084       .  S
C605        C606   1.424       .  A
C605        C610   1.404       .  A
C606        C607   1.418       .  A
C607        C608   1.406       .  A
C607        H616   1.078       .  S
C608        C609   1.402       .  A
C608        H617   1.083       .  S
C609        C610   1.397       .  A
C610        H618   1.085       .  S
C619        C620   1.405   1_565  A
C619        C624   1.404   1_565  A
C620        C621   1.394       .  A
C620        H633   1.083       .  S
C621        C622   1.411       .  A
C621        H634   1.078       .  S
C622        C628   1.432       .  A
C622        C623   1.424       .  A
C623        C625   1.400       .  A
C623        C624   1.412       .  A
C624        H635   1.084   1_545  S
C625        C626   1.393       .  A
C625        H636   1.084       .  S
C626        C627   1.402       .  A
C626        H637   1.084       .  S
C627        C628   1.418       .  A
C627        C632   1.408       .  A
C628        C629   1.414       .  A
C629        C630   1.398       .  A
C629        H638   1.077       .  S
C630        C631   1.409       .  A
C630        H639   1.083       .  S
C631        C632   1.415       .  A
C632        H640   1.080       .  S
C641        C642   1.409       .  A
C641        C646   1.415       .  A
C642        C643   1.390       .  A
C642        H655   1.083       .  S
C643        C644   1.411       .  A
C643        H656   1.076       .  S
C644        C650   1.433       .  A
C644        C645   1.421       .  A
C645        C647   1.404       .  A
C645        C646   1.419       .  A
C646        H657   1.080       .  S
C647        C648   1.399       .  A
C647        H658   1.084       .  S
C648        C649   1.402       .  A
C648        H659   1.084       .  S
C649        C650   1.424       .  A
C649        C654   1.421       .  A
C650        C651   1.410       .  A
C651        C652   1.389       .  A
C651        H660   1.076       .  S
C652        C653   1.406       .  A
C652        H661   1.083       .  S
C653        C654   1.408       .  A
C654        H662   1.084       .  S
C663        C664   1.408       .  A
C663        C668   1.414       .  A
C664        C665   1.392       .  A
C664        H677   1.083       .  S
C665        C666   1.412       .  A
C665        H678   1.077       .  S
C666        C672   1.429       .  A
C666        C667   1.419       .  A
C667        C669   1.402       .  A
C667        C668   1.408       .  A
C668        H679   1.081       .  S
C669        C670   1.393       .  A
C669        H680   1.084       .  S
C670        C671   1.400       .  A
C670        H681   1.084       .  S
C671        C672   1.424       .  A
C671        C676   1.411       .  A
C672        C673   1.412       .  A
C673        C674   1.391       .  A
C673        H682   1.077       .  S
C674        C675   1.400       .  A
C674        H683   1.084       .  S
C675        C676   1.402       .  A
C676        H684   1.084       .  S
C685        C686   1.414       .  A
C685        C690   1.414       .  A
C686        C687   1.395       .  A
C686        H699   1.079       .  S
C687        C688   1.409       .  A
C687        H700   1.077       .  S
C688        C694   1.435       .  A
C688        C689   1.421       .  A
C689        C691   1.402       .  A
C689        C690   1.415       .  A
C690        H701   1.084       .  S
C691        C692   1.396       .  A
C691        H702   1.084       .  S
C692        C693   1.402       .  A
C692        H703   1.084       .  S
C693        C694   1.423       .  A
C693        C698   1.414       .  A
C694        C695   1.417       .  A
C695        C696   1.398       .  A
C695        H704   1.077       .  S
C696        C697   1.397       .  A
C696        H705   1.084       .  S
C697        C698   1.402       .  A
C698        H706   1.084       .  S
C707        C708   1.412       .  A
C707        C712   1.410       .  A
C708        C709   1.412       .  A
C708        H721   1.080   1_455  S
C709        C710   1.418       .  A
C709        H722   1.079       .  S
C710        C716   1.443       .  A
C710        C711   1.421       .  A
C711        C713   1.398       .  A
C711        C712   1.402       .  A
C712        H723   1.084       .  S
C713        C714   1.385       .  A
C713        H724   1.084       .  S
C714        C715   1.398       .  A
C714        H725   1.084       .  S
C715        C716   1.422       .  A
C715        C720   1.402       .  A
C716        C717   1.421       .  A
C717        C718   1.413       .  A
C717        H726   1.079       .  S
C718        C719   1.405       .  A
C718        H727   1.083       .  S
C719        C720   1.405       .  A
C720        H728   1.084       .  S
C729        C730   1.408       .  A
C729        C734   1.413       .  A
C730        C731   1.399       .  A
C730        H743   1.083       .  S
C731        C732   1.414       .  A
C731        H744   1.078       .  S
C732        C738   1.432       .  A
C732        C733   1.419       .  A
C733        C735   1.401       .  A
C733        C734   1.405       .  A
C734        H745   1.081       .  S
C735        C736   1.390       .  A
C735        H746   1.084       .  S
C736        C737   1.399       .  A
C736        H747   1.084       .  S
C737        C738   1.424       .  A
C737        C742   1.409   1_565  A
C738        C739   1.412       .  A
C739        C740   1.396       .  A
C739        H748   1.078       .  S
C740        C741   1.405   1_565  A
C740        H749   1.083   1_565  S
C741        C742   1.401       .  A
C742        H750   1.084       .  S
C751        C752   1.400       .  A
C751        C756   1.403       .  A
C752        C753   1.403       .  A
C752        H765   1.083       .  S
C753        C754   1.418   1_556  A
C753        H766   1.078   1_556  S
C754        C760   1.431       .  A
C754        C755   1.420   1_554  A
C755        C757   1.399   1_556  A
C755        C756   1.398       .  A
C756        H767   1.085       .  S
C757        C758   1.387       .  A
C757        H768   1.084   1_554  S
C758        C759   1.398       .  A
C758        H769   1.084       .  S
C759        C760   1.421       .  A
C759        C764   1.403       .  A
C760        C761   1.411       .  A
C761        C762   1.397       .  A
C761        H770   1.078       .  S
C762        C763   1.411       .  A
C762        H771   1.083       .  S
C763        C764   1.409       .  A
C764        H772   1.081       .  S
