geometry optimzed in LAMMPS
_audit_creation_date              2020-11-30 
_audit_creation_method            'lammps2cif' 
_symmetry_space_group_name_H-M    'P1' 
_symmetry_Int_Tables_number       1 
_symmetry_cell_setting            triclinic 
loop_ 
_symmetry_equiv_pos_as_xyz 
  x,y,z 
_cell_length_a                    28.49845994 
_cell_length_b                    28.210359557771355 
_cell_length_c                    28.15476106725198 
_cell_angle_alpha                 89.93459233673401 
_cell_angle_beta                  90.10388914536401 
_cell_angle_gamma                 90.14884149411907 
loop_ 
_atom_site_label 
_atom_site_type_symbol 
_atom_site_fract_x 
_atom_site_fract_y 
_atom_site_fract_z 
_atom_site_charge 
O1          O  0.98903480  0.06351464  0.14100445    -0.86300
O2          O  0.01244734  0.09033392  0.87448953    -0.86500
O3          O  0.07421570  0.13288411  0.02055616    -0.88200
O4          O  0.92038882  0.13449954  0.00576338    -0.86900
O5          O  0.86567146  0.07631694  0.99178323    -0.86500
O6          O  0.13311003  0.07722260  0.01978849    -0.87900
O7          O  0.00503386  0.14198732  0.93705104    -0.86300
O8          O  0.99321677  0.12698743  0.09006149    -0.85900
Zr9        Zr  0.99831328  0.09553458  0.00929501     2.84300
O10         O  0.95746885  0.05379100  0.95055050    -1.07900
O11         O  0.04150833  0.04241276  0.05628689    -1.08600
C12         C  0.99051590  0.10833632  0.13199149     1.06800
C13         C  0.00951765  0.13236203  0.89254007     1.06700
C14         C  0.11772299  0.12053048  0.02251414     1.09700
C15         C  0.87769546  0.11960556  0.99912103     1.07500
H16         H  0.07317064  0.07336711  0.94698225     0.33100
O17         O  0.05176305  0.05195833  0.96276890    -1.28900
H18         H  0.92520505  0.06181760  0.06648313     0.32700
O19         O  0.94666158  0.04391149  0.04705782    -1.30500
O20         O  0.01454413  0.93573422  0.86023135    -0.86300
O21         O  0.98551103  0.91057905  0.12610330    -0.87800
O22         O  0.14062238  0.00316375  0.93712149    -0.86400
O23         O  0.87660951  0.00654729  0.90671735    -0.86400
O24         O  0.85937255  0.99422683  0.06050666    -0.86200
O25         O  0.12390675  0.99202303  0.09128011    -0.86000
O26         O  0.07160313  0.86450881  0.99526576    -0.86300
O27         O  0.91922813  0.86821179  0.98122842    -0.85800
O28         O  0.13115588  0.91842271  0.00712414    -0.86900
O29         O  0.86528340  0.92831221  0.97682273    -0.86000
O30         O  0.09043204  0.01035995  0.87363201    -0.86400
O31         O  0.06081681  0.98666236  0.14169988    -0.86100
O32         O  0.90916949  0.98953946  0.12459243    -0.85800
O33         O  0.93958304  0.01172558  0.85624365    -0.86200
O34         O  0.00648922  0.87310673  0.91180818    -0.86500
O35         O  0.98959584  0.85887505  0.06338282    -0.87800
Zr36       Zr  0.01035785  0.00940011  0.90500372     2.83100
Zr37       Zr  0.98931143  0.99096326  0.09442406     2.83500
Zr38       Zr  0.09461566  0.99856720  0.01011141     2.84100
Zr39       Zr  0.90596751  0.00179392  0.98844269     2.83400
Zr40       Zr  0.99716478  0.90521286  0.99110970     2.84200
O41         O  0.94568608  0.94871473  0.03799253    -1.08400
O42         O  0.05099526  0.95615137  0.95364089    -1.07900
C43         C  0.01235147  0.89107940  0.87004063     1.06800
C44         C  0.98661686  0.86850253  0.10801154     1.09400
C45         C  0.13187287  0.00725963  0.89225684     1.06900
C46         C  0.89514491  0.00930033  0.86484695     1.07300
C47         C  0.86792419  0.99096039  0.10543480     1.06900
C48         C  0.10523253  0.98823270  0.13295595     1.06400
C49         C  0.11509825  0.87556905  0.00122783     1.06900
C50         C  0.87694944  0.88442292  0.97637478     1.06400
H51         H  0.05826072  0.92524049  0.06756137     0.33000
O52         O  0.04119794  0.94718968  0.04767699    -1.29500
H53         H  0.93980960  0.93995689  0.91823711     0.33100
O54         O  0.95715345  0.95769785  0.94173785    -1.30900
O55         O  0.99095408  0.44186531  0.35756262    -0.86300
O56         O  0.99438645  0.40789904  0.62495293    -0.86500
O57         O  0.06014598  0.36057370  0.48248176    -0.88200
O58         O  0.90725798  0.37692211  0.48874017    -0.86900
O59         O  0.85795214  0.44073778  0.49638990    -0.86500
O60         O  0.12398760  0.41003074  0.49033730    -0.87900
O61         O  0.98732527  0.35840364  0.56065560    -0.86300
O62         O  0.98550107  0.37825176  0.40814400    -0.85900
Zr63       Zr  0.98844582  0.40718117  0.48956065     2.84300
O64         O  0.94647959  0.45270742  0.54443491    -1.07900
O65         O  0.04071669  0.45573730  0.44761504    -1.08600
C66         C  0.98724099  0.39705749  0.36631603     1.06800
C67         C  0.99068382  0.36654539  0.60558644     1.06700
C68         C  0.10475695  0.36871667  0.48452823     1.09700
C69         C  0.86601216  0.39600824  0.49188044     1.07500
H70         H  0.05946275  0.41968798  0.55873263     0.33100
O71         O  0.04192735  0.44354352  0.54174924    -1.28900
H72         H  0.92346802  0.44972991  0.42725809     0.32700
O73         O  0.94539307  0.46479134  0.44873973    -1.30500
O74         O  0.00860631  0.55924535  0.64515933    -0.86300
O75         O  0.00188218  0.59452445  0.37821715    -0.87800
O76         O  0.13367579  0.48347995  0.57853650    -0.86400
O77         O  0.86730263  0.50870418  0.58045482    -0.86400
O78         O  0.86527890  0.52629425  0.42980296    -0.86200
O79         O  0.13145407  0.49545819  0.41987912    -0.86000
O80         O  0.08952316  0.62692699  0.51500175    -0.86300
O81         O  0.93944915  0.64273920  0.51539567    -0.85800
O82         O  0.14122299  0.56549947  0.50511879    -0.86900
O83         O  0.87588548  0.59304830  0.50883843    -0.86000
O84         O  0.07512345  0.47900171  0.63450306    -0.86400
O85         O  0.07247593  0.51041026  0.36601507    -0.86100
O86         O  0.91966449  0.52539016  0.36974350    -0.85800
O87         O  0.92330163  0.49354719  0.63713949    -0.86200
O88         O  0.01406666  0.62342610  0.59526577    -0.86500
O89         O  0.01132770  0.64379072  0.44239270    -0.87800
Zr90       Zr  0.99943209  0.48917217  0.59627322     2.83100
Zr91       Zr  0.99731123  0.51303215  0.40638907     2.83500
Zr92       Zr  0.09516805  0.49158058  0.49957113     2.84100
Zr93       Zr  0.90545900  0.51198797  0.50377727     2.83400
Zr94       Zr  0.01028040  0.59507852  0.51346656     2.84200
O95         O  0.95715590  0.55969596  0.46104201    -1.08400
O96         O  0.05256451  0.53704420  0.55423453    -1.07900
C97         C  0.01285622  0.60396722  0.63687101     1.06800
C98         C  0.00677636  0.63577967  0.39755766     1.09400
C99         C  0.11861240  0.47912535  0.62192787     1.06900
C100        C  0.88052349  0.50144341  0.62362423     1.07300
C101        C  0.87724000  0.52918095  0.38588511     1.06900
C102        C  0.11580526  0.50320617  0.37720783     1.06400
C103        C  0.13132789  0.61000052  0.51051919     1.06900
C104        C  0.89501047  0.63451669  0.51254803     1.06400
H105        H  0.07220668  0.56918431  0.44035231     0.33000
O106        O  0.05134622  0.54902926  0.45839621    -1.29500
H107        H  0.94043027  0.56775918  0.57865426     0.33100
O108        O  0.95756788  0.54828809  0.55645880    -1.30900
O109        O  0.64044838  0.99419016  0.43433403    -0.86300
O110        O  0.37424365  0.00433277  0.40720062    -0.86500
O111        O  0.51225962  0.92648863  0.35899466    -0.88200
O112        O  0.51571151  0.08035975  0.36496771    -0.86900
O113        O  0.51200267  0.13595304  0.42440199    -0.86500
O114        O  0.50659902  0.86784224  0.41511859    -0.87900
O115        O  0.43640572  0.00622533  0.35528412    -0.86300
O116        O  0.58994858  0.99818041  0.37073208    -0.85900
Zr117      Zr  0.50943859  0.00243875  0.40111712     2.84300
O118        O  0.45972722  0.05007421  0.44720219    -1.07900
O119        O  0.55081464  0.95152599  0.45126177    -1.08600
C120        C  0.63140310  0.99519916  0.38946299     1.06800
C121        C  0.39206033  0.00573385  0.36504488     1.06700
C122        C  0.51131682  0.88254216  0.37206125     1.09700
C123        C  0.51550991  0.12350514  0.38020982     1.07500
H124        H  0.43702978  0.93637110  0.41935605     0.33100
O125        O  0.45501122  0.95510269  0.44160944    -1.28900
H126        H  0.57604902  0.06595127  0.43871512     0.32700
O127        O  0.55392538  0.04648901  0.45587143    -1.30500
O128        O  0.36039634  0.00144433  0.56198359    -0.86300
O129        O  0.62549944  0.99311996  0.58777644    -0.87800
O130        O  0.42089022  0.86740459  0.48237283    -0.86400
O131        O  0.42964792  0.13573148  0.49350458    -0.86400
O132        O  0.58267806  0.13079789  0.50806909    -0.86200
O133        O  0.57046079  0.86245032  0.49757565    -0.86000
O134        O  0.48333354  0.91318426  0.62591658    -0.86300
O135        O  0.49125231  0.06808889  0.63477748    -0.85800
O136        O  0.48638649  0.86051111  0.56394859    -0.86900
O137        O  0.49924140  0.12969538  0.58182964    -0.86000
O138        O  0.36417827  0.92503426  0.48480422    -0.86400
O139        O  0.63046758  0.91611949  0.50641718    -0.86100
O140        O  0.63602128  0.06994794  0.51103056    -0.85800
O141        O  0.36935373  0.08204398  0.48509974    -0.86200
O142        O  0.41125443  0.99589781  0.62514014    -0.86500
O143        O  0.56287778  0.99099661  0.63896119    -0.87800
Zr144      Zr  0.40503678  0.00249850  0.48783451     2.83100
Zr145      Zr  0.59444084  0.99480255  0.50678220     2.83500
Zr146      Zr  0.49684681  0.90475267  0.49176023     2.84100
Zr147      Zr  0.50437739  0.09467845  0.50136669     2.83400
Zr148      Zr  0.49059780  0.99348100  0.59229560     2.84200
O149        O  0.54422176  0.04222851  0.55185087    -1.08400
O150        O  0.44597183  0.95050309  0.53756196    -1.07900
C151        C  0.36966677  0.99897598  0.60689985     1.06800
C152        C  0.60730021  0.99178525  0.62982626     1.09400
C153        C  0.37785725  0.88121218  0.48259814     1.06900
C154        C  0.38591659  0.12483526  0.48807581     1.07300
C155        C  0.62499244  0.11426109  0.51052034     1.06900
C156        C  0.61407369  0.87347820  0.50252453     1.06400
C157        C  0.48256210  0.87077880  0.60820353     1.06900
C158        C  0.49471190  0.11247173  0.62441784     1.06400
H159        H  0.55806904  0.92479208  0.56821846     0.33000
O160        O  0.54139123  0.94636709  0.54764947    -1.29500
H161        H  0.42992586  0.06606753  0.56083704     0.33100
O162        O  0.45037537  0.04625554  0.54208351    -1.30900
O163        O  0.43200605  0.36579742  0.00015517    -0.86300
O164        O  0.42923057  0.63558025  0.01482060    -0.86500
O165        O  0.37448164  0.49656090  0.08778021    -0.88200
O166        O  0.36463363  0.50478784  0.92975802    -0.86900
O167        O  0.42077106  0.51405748  0.87191163    -0.86500
O168        O  0.43622345  0.49406047  0.14049960    -0.87900
O169        O  0.37017137  0.57983409  0.01189853    -0.86300
O170        O  0.37180199  0.41943488  0.00758626    -0.85900
Zr171      Zr  0.40742423  0.50045898  0.00678574     2.84300
O172        O  0.45357676  0.55223659  0.96069815    -1.07900
O173        O  0.46081151  0.45202258  0.04816090    -1.08600
C174        C  0.38837737  0.37650547  0.00484406     1.06800
C175        C  0.38570421  0.62314415  0.01489557     1.06700
C176        C  0.39200566  0.49421198  0.13032093     1.09700
C177        C  0.37787818  0.51107961  0.88599550     1.07500
H178        H  0.44057752  0.56500298  0.07652989     0.33100
O179        O  0.45878403  0.54640757  0.05442164    -1.28900
H180        H  0.43410654  0.43807657  0.93360505     0.32700
O181        O  0.45432724  0.45696224  0.95364050    -1.30500
O182        O  0.58176485  0.63764238  0.00636886    -0.86300
O183        O  0.58415599  0.37005207  0.98701159    -0.87800
O184        O  0.51216006  0.57281162  0.14086553    -0.86400
O185        O  0.49252644  0.58971494  0.87358881    -0.86400
O186        O  0.49592127  0.43628752  0.86192873    -0.86200
O187        O  0.50979931  0.41855339  0.13115079    -0.86000
O188        O  0.64145504  0.49917608  0.06916962    -0.86300
O189        O  0.63268477  0.50556495  0.91718703    -0.85800
O190        O  0.58956129  0.49944828  0.13150135    -0.86900
O191        O  0.57292182  0.50918794  0.86262977    -0.86000
O192        O  0.50960808  0.63263041  0.08564590    -0.86400
O193        O  0.50945861  0.36329764  0.07118819    -0.86100
O194        O  0.50176117  0.37398059  0.91428563    -0.85800
O195        O  0.49641996  0.64250727  0.93540669    -0.86200
O196        O  0.63722437  0.57906155  0.00129360    -0.86500
O197        O  0.63848843  0.43015912  0.98323012    -0.87800
Zr198      Zr  0.50475028  0.59748534  0.00766334     2.83100
Zr199      Zr  0.50622168  0.40684118  0.99541281     2.83500
Zr200      Zr  0.51011610  0.49760573  0.09713375     2.84100
Zr201      Zr  0.49852722  0.50959195  0.90648901     2.83400
Zr202      Zr  0.59785582  0.50373652  0.99563300     2.84200
O203        O  0.54878066  0.45870477  0.94752336    -1.08400
O204        O  0.55497982  0.54830949  0.05001602    -1.07900
C205        C  0.62469374  0.62262728  0.00484710     1.06800
C206        C  0.62649548  0.38625749  0.98223204     1.09400
C207        C  0.51167690  0.61703991  0.12854596     1.06900
C208        C  0.49219495  0.63208182  0.89116076     1.07300
C209        C  0.49809452  0.39174153  0.87189028     1.06900
C210        C  0.50971184  0.37558452  0.11555614     1.06400
C211        C  0.63149440  0.49961165  0.11374239     1.06900
C212        C  0.61680314  0.50661533  0.87426795     1.06400
H213        H  0.57646966  0.43164240  0.06175888     0.33000
O214        O  0.55538946  0.45213105  0.04441864    -1.29500
H215        H  0.56784841  0.57631736  0.93323506     0.33100
O216        O  0.54950026  0.55518663  0.95287321    -1.30900
C217        C  0.52042711  0.25718495  0.18474389     0.18900
C218        C  0.53350316  0.27042762  0.23122682    -0.19200
C219        C  0.53487912  0.23696046  0.26790977    -0.11500
C220        C  0.52354331  0.18925712  0.25905714     0.21100
C221        C  0.51273950  0.17565364  0.21223915    -0.20900
C222        C  0.51116809  0.20920058  0.17554007    -0.11700
C223        C  0.52296600  0.15251675  0.29719436    -0.15900
C224        C  0.51919727  0.16184546  0.34417594    -0.29700
C225        C  0.51734481  0.29231964  0.14515899    -0.04000
C226        C  0.51016648  0.33878579  0.15295555    -0.40500
H227        H  0.54350002  0.30646892  0.23953455     0.12300
H228        H  0.54544292  0.24866611  0.30288293     0.11900
H229        H  0.50460820  0.13900359  0.20414903     0.11300
H230        H  0.50193426  0.19773832  0.14001177     0.11600
H231        H  0.52332570  0.11578610  0.28561177     0.14300
H232        H  0.51708253  0.19810659  0.35669084     0.13100
H233        H  0.52050548  0.27957715  0.10889789     0.10800
H234        H  0.50501825  0.35136160  0.18895751     0.12800
C235        C  0.51769568  0.68505478  0.24645973     0.18900
C236        C  0.48851575  0.72476219  0.24026514    -0.19200
C237        C  0.49065030  0.76267140  0.27196644    -0.11500
C238        C  0.52185496  0.76151619  0.31059267     0.21100
C239        C  0.54984548  0.72123079  0.31767051    -0.20900
C240        C  0.54780144  0.68327708  0.28581034    -0.11700
C241        C  0.52327801  0.80026976  0.34586548    -0.15900
C242        C  0.51473967  0.84595858  0.33484926    -0.29700
C243        C  0.51739538  0.64553290  0.21189270    -0.04000
C244        C  0.51260846  0.65406015  0.16527544    -0.40500
H245        H  0.46369080  0.72636533  0.21115268     0.12300
H246        H  0.46720397  0.79235680  0.26672259     0.11900
H247        H  0.57350626  0.71927953  0.34776414     0.11300
H248        H  0.57021687  0.65282698  0.29146762     0.11600
H249        H  0.53183740  0.79067761  0.38227044     0.14300
H250        H  0.50962196  0.85656471  0.29812048     0.13100
H251        H  0.52363089  0.60968689  0.22451974     0.10800
H252        H  0.50971252  0.69047484  0.15295393     0.12800
C253        C  0.47639823  0.71034605  0.78026767     0.18900
C254        C  0.48641681  0.70424267  0.73201019    -0.19200
C255        C  0.48659383  0.74299392  0.70113665    -0.11500
C256        C  0.47583700  0.78884884  0.71787560     0.21100
C257        C  0.46467654  0.79463801  0.76593705    -0.20900
C258        C  0.46450011  0.75587808  0.79677984    -0.11700
C259        C  0.47775355  0.83169351  0.68708995    -0.15900
C260        C  0.47739377  0.82935935  0.63955717    -0.29700
C261        C  0.47948903  0.66866069  0.81226881    -0.04000
C262        C  0.48696081  0.67287699  0.85913545    -0.40500
H263        H  0.49556616  0.66956467  0.71839502     0.12300
H264        H  0.49675971  0.73664314  0.66477283     0.11900
H265        H  0.45603203  0.82936737  0.77972304     0.11300
H266        H  0.45468318  0.76196123  0.83332187     0.11600
H267        H  0.47961147  0.86619790  0.70412697     0.14300
H268        H  0.47370675  0.79543245  0.62190637     0.13100
H269        H  0.47806118  0.63355511  0.79644898     0.10800
H270        H  0.49057131  0.70762552  0.87517849     0.12800
C271        C  0.49659170  0.28205718  0.78907627     0.18900
C272        C  0.47811246  0.23603249  0.79197179    -0.19200
C273        C  0.47675191  0.20665351  0.75188326    -0.11500
C274        C  0.49485846  0.22236627  0.70791417     0.21100
C275        C  0.51315864  0.26849319  0.70511414    -0.20900
C276        C  0.51436975  0.29788521  0.74513485    -0.11700
C277        C  0.49528958  0.19198400  0.66435571    -0.15900
C278        C  0.49322928  0.14438127  0.66619281    -0.29700
C279        C  0.49762578  0.31235267  0.83247690    -0.04000
C280        C  0.49640608  0.35994947  0.83017217    -0.40500
H281        H  0.46409859  0.22295579  0.82526558     0.12300
H282        H  0.46087184  0.17202589  0.75563041     0.11900
H283        H  0.52736966  0.28161380  0.67193790     0.11300
H284        H  0.53020984  0.33258646  0.74159978     0.11600
H285        H  0.49939642  0.20917841  0.63005802     0.14300
H286        H  0.49137227  0.12688456  0.70045578     0.13100
H287        H  0.49778899  0.29507054  0.86698777     0.10800
H288        H  0.49344653  0.37711612  0.79577316     0.12800
C289        C  0.70338547  0.22674121  0.50621185     0.18900
C290        C  0.69918823  0.27156859  0.48491477    -0.19200
C291        C  0.73821789  0.30163435  0.48077731    -0.11500
C292        C  0.78239934  0.28761412  0.49841162     0.21100
C293        C  0.78634556  0.24315971  0.52033312    -0.20900
C294        C  0.74737494  0.21329799  0.52472112    -0.11700
C295        C  0.82523009  0.31787519  0.49457457    -0.15900
C296        C  0.82372742  0.36537775  0.49088528    -0.29700
C297        C  0.66155230  0.19481385  0.50798727    -0.04000
C298        C  0.66521616  0.14741006  0.51209048    -0.40500
H299        H  0.66580375  0.28296443  0.47046743     0.12300
H300        H  0.73373086  0.33519536  0.46276894     0.11900
H301        H  0.81973802  0.23163024  0.53464741     0.11300
H302        H  0.75206870  0.17998910  0.54309638     0.11600
H303        H  0.85914244  0.30069531  0.49816839     0.14300
H304        H  0.79007041  0.38326484  0.49030727     0.13100
H305        H  0.62707472  0.21045544  0.50305963     0.10800
H306        H  0.69959598  0.13117093  0.51422007     0.12800
C307        C  0.72484682  0.79505760  0.50990911     0.18900
C308        C  0.77240706  0.80112740  0.49874785    -0.19200
C309        C  0.80301216  0.76245490  0.49877016    -0.11500
C310        C  0.78671047  0.71675420  0.51068849     0.21100
C311        C  0.73927609  0.71080546  0.52233272    -0.20900
C312        C  0.70875743  0.74944214  0.52247644    -0.11700
C313        C  0.81752335  0.67428899  0.51030990    -0.15900
C314        C  0.86454712  0.67671727  0.51342829    -0.29700
C315        C  0.69324874  0.83697020  0.50846934    -0.04000
C316        C  0.64647479  0.83290644  0.50393872    -0.40500
H317        H  0.78577077  0.83579625  0.48906098     0.12300
H318        H  0.83897281  0.76859074  0.48827686     0.11900
H319        H  0.72582166  0.67612211  0.53186047     0.11300
H320        H  0.67287829  0.74320144  0.53319043     0.11600
H321        H  0.80069807  0.63970175  0.50864794     0.14300
H322        H  0.88189554  0.71074568  0.51727571     0.13100
H323        H  0.70903244  0.87206387  0.50972031     0.10800
H324        H  0.63050874  0.79820572  0.50003923     0.12800
C325        C  0.21310662  0.28509795  0.48526528     0.18900
C326        C  0.26130319  0.29144340  0.47745661    -0.19200
C327        C  0.29185969  0.25267603  0.47638201    -0.11500
C328        C  0.27514274  0.20612908  0.48407004     0.21100
C329        C  0.22686126  0.19986603  0.49217826    -0.20900
C330        C  0.19621758  0.23871576  0.49296829    -0.11700
C331        C  0.30651838  0.16341974  0.48387956    -0.15900
C332        C  0.35374822  0.16608996  0.48576373    -0.29700
C333        C  0.18225475  0.32785575  0.48660961    -0.04000
C334        C  0.13533210  0.32639465  0.48065277    -0.40500
H335        H  0.27540854  0.32665970  0.47153520     0.12300
H336        H  0.32828533  0.25987786  0.46878309     0.11900
H337        H  0.21277047  0.16471131  0.49841386     0.11300
H338        H  0.15961093  0.23211059  0.50054423     0.11600
H339        H  0.29009283  0.12861157  0.48391065     0.14300
H340        H  0.37074544  0.20037867  0.48776681     0.13100
H341        H  0.19908764  0.36201000  0.49223425     0.10800
H342        H  0.11805549  0.29287783  0.47337647     0.12800
C343        C  0.26515176  0.80504804  0.49944209     0.18900
C344        C  0.27407218  0.75999442  0.47953025    -0.19200
C345        C  0.24219843  0.72246891  0.48548194    -0.11500
C346        C  0.20040075  0.72907605  0.51107241     0.21100
C347        C  0.19137389  0.77398792  0.53046735    -0.20900
C348        C  0.22332734  0.81133557  0.52489203    -0.11700
C349        C  0.16355908  0.69165003  0.51520626    -0.15900
C350        C  0.17085364  0.64456911  0.51004583    -0.29700
C351        C  0.29804494  0.84634161  0.49474904    -0.04000
C352        C  0.34299648  0.84219116  0.48085507    -0.40500
H353        H  0.30492119  0.75340561  0.45835965     0.12300
H354        H  0.24976897  0.68891419  0.46864040     0.11900
H355        H  0.15922615  0.78033038  0.54990441     0.11300
H356        H  0.21521246  0.84541094  0.54051884     0.11600
H357        H  0.12827723  0.70393334  0.52293366     0.14300
H358        H  0.20600866  0.63111356  0.50427506     0.13100
H359        H  0.28571365  0.88091721  0.50617940     0.10800
H360        H  0.35689824  0.80760374  0.47206984     0.12800
C361        C  0.79715755  0.52634080  0.27597339     0.18900
C362        C  0.79595062  0.49525044  0.23727805    -0.19200
C363        C  0.75527194  0.49028867  0.21003970    -0.13100
C364        C  0.71498291  0.51726350  0.22024680     0.21100
C365        C  0.71630940  0.54885654  0.25865348    -0.20900
C366        C  0.75705298  0.55368860  0.28608138    -0.11700
C367        C  0.67139938  0.51320211  0.19132712    -0.15900
C368        C  0.67265650  0.50046211  0.14540940    -0.29700
C369        C  0.83996872  0.52747848  0.30617902    -0.04000
C370        C  0.83778554  0.53653106  0.35285295    -0.40500
H371        H  0.82615759  0.47356182  0.22897764     0.12300
H372        H  0.75535155  0.46439025  0.18176099     0.11900
H373        H  0.68590909  0.57019726  0.26714659     0.11300
H374        H  0.75701983  0.57901560  0.31490475     0.11600
H375        H  0.63826178  0.52381758  0.20707358     0.14300
H376        H  0.70621638  0.49380240  0.12856659     0.13100
H377        H  0.87286369  0.51540152  0.29098211     0.10800
H378        H  0.80421063  0.54490455  0.36891203     0.12800
C379        C  0.28336988  0.49651332  0.21328737     0.18900
C380        C  0.24467532  0.52691697  0.21665583    -0.19200
C381        C  0.21611805  0.52663868  0.25709755    -0.11500
C382        C  0.22486768  0.49494579  0.29486414     0.21100
C383        C  0.26360760  0.46447991  0.29145836    -0.20900
C384        C  0.29243529  0.46504830  0.25110133    -0.11700
C385        C  0.19434919  0.49311385  0.33803367    -0.15900
C386        C  0.14864994  0.50499706  0.33646938    -0.29700
C387        C  0.31352363  0.49838568  0.17000815    -0.04000
C388        C  0.36012418  0.49089198  0.17184053    -0.40500
H389        H  0.23703509  0.55166476  0.18824286     0.12300
H390        H  0.18763490  0.55183605  0.25879340     0.11900
H391        H  0.27124794  0.43972244  0.31985874     0.11300
H392        H  0.32141407  0.44039926  0.24932637     0.11600
H393        H  0.20911733  0.47960982  0.37096754     0.14300
H394        H  0.13328258  0.51520560  0.30268395     0.13100
H395        H  0.29754843  0.50908764  0.13661609     0.10800
H396        H  0.37641353  0.48367927  0.20599550     0.12800
C397        C  0.27521709  0.49285321  0.79639217     0.18900
C398        C  0.24788145  0.45327955  0.78366159    -0.19200
C399        C  0.22238035  0.45255235  0.74088800    -0.11500
C400        C  0.22330711  0.49163760  0.70965924     0.21100
C401        C  0.25069279  0.53112818  0.72221261    -0.20900
C402        C  0.27580596  0.53207274  0.76516574    -0.11700
C403        C  0.19503903  0.49277141  0.66468246    -0.15900
C404        C  0.15213647  0.47278735  0.66195229    -0.29700
C405        C  0.30352020  0.49154768  0.84155784    -0.04000
C406        C  0.34302812  0.51730974  0.84720245    -0.40500
H407        H  0.24673806  0.42246289  0.80661771     0.12300
H408        H  0.20231166  0.42112414  0.73212072     0.11900
H409        H  0.25179310  0.56190059  0.69918566     0.11300
H410        H  0.29513569  0.56393834  0.77385074     0.11600
H411        H  0.20733313  0.51455567  0.63535670     0.14300
H412        H  0.13820899  0.45524806  0.69329032     0.13100
H413        H  0.29447510  0.46548731  0.86850464     0.10800
H414        H  0.35465842  0.53972121  0.81817707     0.12800
C415        C  0.73406039  0.49269884  0.80632853     0.18900
C416        C  0.73009227  0.51896679  0.76404872    -0.19200
C417        C  0.76704294  0.52027150  0.73147252    -0.11500
C418        C  0.80881839  0.49503268  0.74014235     0.21100
C419        C  0.81306646  0.46956513  0.78274387    -0.20900
C420        C  0.77611088  0.46835462  0.81541782    -0.11700
C421        C  0.84862194  0.49497615  0.70586553    -0.15900
C422        C  0.84246973  0.50271443  0.65913981    -0.29700
C423        C  0.69674048  0.49262061  0.84325478    -0.04000
C424        C  0.65159640  0.50486802  0.83532434    -0.40500
H425        H  0.69921157  0.53984063  0.75648626     0.12300
H426        H  0.76297134  0.54209599  0.70015358     0.11900
H427        H  0.84495352  0.45023807  0.79061345     0.11300
H428        H  0.78045927  0.44840511  0.84802818     0.11600
H429        H  0.88336618  0.48606494  0.71903593     0.14300
H430        H  0.80745694  0.50899049  0.64535471     0.13100
H431        H  0.70711661  0.48177240  0.87881264     0.10800
H432        H  0.63942108  0.51283653  0.79969978     0.12800
C433        C  0.70567852  0.73100878  0.99603056     0.18900
C434        C  0.71280856  0.76303959  0.95870687    -0.19200
C435        C  0.75559785  0.78696440  0.95426258    -0.11500
C436        C  0.79169200  0.78009497  0.98790057     0.21100
C437        C  0.78432996  0.74831058  0.02540500    -0.20900
C438        C  0.74167188  0.72422763  0.02967618    -0.11700
C439        C  0.83629761  0.80732593  0.98625021    -0.15900
C440        C  0.83722862  0.85186121  0.96982549    -0.29700
C441        C  0.66198879  0.70235625  0.99743545    -0.04000
C442        C  0.66418366  0.65612330  0.00808518    -0.40500
H443        H  0.68580269  0.76837574  0.93211876     0.12300
H444        H  0.76043752  0.81033112  0.92415403     0.11900
H445        H  0.81135261  0.74272343  0.05192951     0.11300
H446        H  0.73685172  0.70023152  0.05931866     0.11600
H447        H  0.86708012  0.79303361  0.00399810     0.14300
H448        H  0.80516668  0.86768098  0.95629730     0.13100
H449        H  0.62931264  0.71764341  0.98478369     0.10800
H450        H  0.69816689  0.64059570  0.01614667     0.12800
C451        C  0.71611371  0.28693565  0.00340311     0.18900
C452        C  0.71539120  0.24199245  0.02462221    -0.19200
C453        C  0.75570540  0.21390349  0.02556563    -0.11500
C454        C  0.79792924  0.23014978  0.00512852     0.21100
C455        C  0.79932305  0.27595150  0.98589576    -0.20900
C456        C  0.75896371  0.30413075  0.98498109    -0.11700
C457        C  0.84080683  0.20003706  0.00365764    -0.15900
C458        C  0.83765504  0.15266825  0.00075552    -0.29700
C459        C  0.67215435  0.31541635  0.00333457    -0.04000
C460        C  0.66556503  0.35319557  0.97516831    -0.40500
H461        H  0.68336813  0.22837247  0.04028068     0.12300
H462        H  0.75368845  0.17963363  0.04273543     0.11900
H463        H  0.83158974  0.28972799  0.97092383     0.11300
H464        H  0.76199043  0.33940927  0.97031934     0.11600
H465        H  0.87505289  0.21699455  0.00266126     0.14300
H466        H  0.80314366  0.13638398  0.99831260     0.13100
H467        H  0.64475351  0.30583791  0.02842928     0.10800
H468        H  0.69233414  0.36403965  0.95008302     0.12800
C469        C  0.27685436  0.70564457  0.01270943     0.18900
C470        C  0.23750523  0.70919616  0.98296485    -0.19200
C471        C  0.21034373  0.75056513  0.98214393    -0.11500
C472        C  0.22131269  0.78932864  0.01190535     0.21100
C473        C  0.26044132  0.78554182  0.04200157    -0.20900
C474        C  0.28766396  0.74418363  0.04274463    -0.11700
C475        C  0.19280019  0.83396111  0.01215308    -0.15900
C476        C  0.14699301  0.83401002  0.00049158    -0.29700
C477        C  0.30643541  0.66192859  0.01095500    -0.04000
C478        C  0.35284695  0.66350262  0.01943290    -0.40500
H479        H  0.22840266  0.68028439  0.95936003     0.12300
H480        H  0.18141529  0.75225604  0.95730510     0.11900
H481        H  0.26970781  0.81452793  0.06543916     0.11300
H482        H  0.31689215  0.74244338  0.06725332     0.11600
H483        H  0.20906277  0.86660605  0.02442184     0.14300
H484        H  0.13031817  0.80052577  0.99162769     0.13100
H485        H  0.29057045  0.62890580  0.99915810     0.10800
H486        H  0.36896684  0.69747646  0.02752120     0.12800
C487        C  0.28225884  0.28891737  0.01421232     0.18900
C488        C  0.23854286  0.28935926  0.03696699    -0.19200
C489        C  0.21147200  0.24794010  0.04085950    -0.11500
C490        C  0.22678781  0.20474230  0.02086745     0.21100
C491        C  0.27080863  0.20416588  0.99849917    -0.20900
C492        C  0.29806817  0.24558759  0.99491071    -0.11700
C493        C  0.19737904  0.16034049  0.02137030    -0.15900
C494        C  0.15049916  0.16128618  0.02758481    -0.29700
C495        C  0.31018509  0.33409728  0.01119410    -0.04000
C496        C  0.35721289  0.33416097  0.00717056    -0.40500
H497        H  0.22548919  0.32186469  0.05247997     0.12300
H498        H  0.17879761  0.25027124  0.06007228     0.11900
H499        H  0.28372939  0.17174754  0.98267199     0.11300
H500        H  0.33091636  0.24354729  0.97587758     0.11600
H501        H  0.21403701  0.12680476  0.01288272     0.14300
H502        H  0.13344692  0.19512815  0.03296279     0.13100
H503        H  0.29194911  0.36769800  0.01448656     0.10800
H504        H  0.37527412  0.30034942  0.00655572     0.12800
C505        C  0.78448086  0.99805219  0.78524723     0.18900
C506        C  0.73654907  0.00583992  0.79323254    -0.19200
C507        C  0.70426506  0.00432079  0.75579305    -0.11500
C508        C  0.71909510  0.99404474  0.70922236     0.21100
C509        C  0.76705104  0.98561115  0.70134852    -0.20900
C510        C  0.79941563  0.98739192  0.73884121    -0.11700
C511        C  0.68629647  0.99326965  0.66777047    -0.15900
C512        C  0.63913146  0.99129526  0.67149424    -0.29700
C513        C  0.81716755  0.00023835  0.82654437    -0.04000
C514        C  0.86360988  0.00857679  0.82293516    -0.40500
H515        H  0.72405366  0.01395682  0.82861550     0.12300
H516        H  0.66806603  0.01220158  0.76374764     0.11900
H517        H  0.77957111  0.97752008  0.66596978     0.11300
H518        H  0.83582184  0.97979809  0.73130954     0.11600
H519        H  0.70185864  0.99383537  0.63256277     0.14300
H520        H  0.62263989  0.98902299  0.70606216     0.13100
H521        H  0.80189801  0.99597417  0.86163777     0.10800
H522        H  0.87941514  0.01435222  0.78837435     0.12800
C523        C  0.21224007  0.00810410  0.78115903     0.18900
C524        C  0.20745582  0.98879386  0.73550820    -0.19200
C525        C  0.24593871  0.98614641  0.70482350    -0.11500
C526        C  0.29016956  0.00376532  0.71872603     0.21100
C527        C  0.29496633  0.02318819  0.76441221    -0.20900
C528        C  0.25645454  0.02564278  0.79522380    -0.11700
C529        C  0.33195315  0.00181629  0.68685344    -0.15900
C530        C  0.32859663  0.99993403  0.63909265    -0.29700
C531        C  0.17036450  0.00948582  0.81281796    -0.04000
C532        C  0.17337213  0.00835513  0.86057142    -0.40500
H533        H  0.17391117  0.97488768  0.72379998     0.12300
H534        H  0.24087288  0.96953801  0.67060614     0.11900
H535        H  0.32853794  0.03702883  0.77612507     0.11300
H536        H  0.26136434  0.04186722  0.82967731     0.11600
H537        H  0.36648809  0.00394762  0.70317170     0.14300
H538        H  0.29433569  0.00068704  0.62228552     0.13100
H539        H  0.13593602  0.00864481  0.79616194     0.10800
H540        H  0.20757267  0.00645655  0.87746791     0.12800
C541        C  0.27945939  0.99861178  0.28894500     0.18900
C542        C  0.23749021  0.97276496  0.29303955    -0.19200
C543        C  0.20567341  0.97077886  0.25520341    -0.11500
C544        C  0.21507381  0.99527752  0.21268445     0.21100
C545        C  0.25657692  0.02180195  0.20899986    -0.20900
C546        C  0.28828117  0.02384960  0.24679059    -0.11700
C547        C  0.18315798  0.99350963  0.17107404    -0.15900
C548        C  0.13669401  0.98597623  0.17457573    -0.29700
C549        C  0.31290671  0.99894341  0.32940801    -0.04000
C550        C  0.35934693  0.00656421  0.32432540    -0.40500
H551        H  0.22978022  0.95321700  0.32525456     0.12300
H552        H  0.17448207  0.94919294  0.25906172     0.11900
H553        H  0.26438602  0.04129804  0.17678010     0.11300
H554        H  0.31939291  0.04552029  0.24287591     0.11600
H555        H  0.19816652  0.00169228  0.13654795     0.14300
H556        H  0.12066148  0.98060132  0.20910487     0.13100
H557        H  0.29899357  0.99057545  0.36435674     0.10800
H558        H  0.37429573  0.01183480  0.28929292     0.12800
C559        C  0.71078999  0.98811293  0.27877863     0.18900
C560        C  0.70575902  0.00429012  0.23200016    -0.19200
C561        C  0.74398712  0.00480800  0.20109068    -0.11500
C562        C  0.78810831  0.98805151  0.21606612     0.21100
C563        C  0.79314075  0.97160609  0.26284705    -0.20900
C564        C  0.75487333  0.97129943  0.29387994    -0.11700
C565        C  0.82974542  0.98829601  0.18438567    -0.15900
C566        C  0.82654042  0.98935988  0.13670601    -0.29700
C567        C  0.66922690  0.98936448  0.31048023    -0.04000
C568        C  0.67264166  0.99264621  0.35795296    -0.40500
H569        H  0.67226498  0.01755583  0.21958303     0.12300
H570        H  0.73876677  0.01930526  0.16594135     0.11900
H571        H  0.82670439  0.95852568  0.27529401     0.11300
H572        H  0.75991363  0.95728703  0.32928910     0.11600
H573        H  0.86417693  0.98657153  0.20096094     0.14300
H574        H  0.79250706  0.98892384  0.11943972     0.13100
H575        H  0.63472935  0.98994171  0.29397426     0.10800
H576        H  0.70690192  0.99404897  0.37478825     0.12800
C577        C  0.00261497  0.28618337  0.71569119     0.18900
C578        C  0.02423366  0.29178279  0.76013776    -0.19200
C579        C  0.02679097  0.25392206  0.79197027    -0.11500
C580        C  0.00725411  0.20965684  0.78005327     0.21100
C581        C  0.98592267  0.20391174  0.73556231    -0.20900
C582        C  0.98317409  0.24180212  0.70380083    -0.11700
C583        C  0.00878689  0.16861004  0.81280046    -0.15900
C584        C  0.01095459  0.17334608  0.86021622    -0.29700
C585        C  0.00034874  0.32773670  0.68347098    -0.04000
C586        C  0.99106448  0.32463772  0.63673302    -0.40500
H587        H  0.03956953  0.32551776  0.77014867     0.12300
H588        H  0.04475622  0.25935331  0.82540095     0.11900
H589        H  0.97057331  0.17015311  0.72565923     0.11300
H590        H  0.96499300  0.23606761  0.67060042     0.11600
H591        H  0.00528354  0.13343919  0.79744201     0.14300
H592        H  0.01134238  0.20831570  0.87623692     0.13100
H593        H  0.00810255  0.36226116  0.69875017     0.10800
H594        H  0.98564362  0.29051204  0.61994397     0.12800
C595        C  0.02001869  0.77787749  0.79440844     0.18900
C596        C  0.00440420  0.73116791  0.80103064    -0.19200
C597        C  0.00346075  0.69938611  0.76305987    -0.11500
C598        C  0.01885621  0.71369997  0.71774506     0.21100
C599        C  0.03543158  0.76005690  0.71144924    -0.20900
C600        C  0.03651884  0.79173601  0.74939477    -0.11700
C601        C  0.01671466  0.68213308  0.67580921    -0.15900
C602        C  0.01602073  0.63465753  0.67898098    -0.29700
C603        C  0.01803089  0.81113936  0.83501730    -0.04000
C604        C  0.01648299  0.85847986  0.82958749    -0.40500
H605        H  0.99167421  0.71959936  0.83539713     0.12300
H606        H  0.98933910  0.66431475  0.76921485     0.11900
H607        H  0.04774573  0.77179589  0.67699053     0.11300
H608        H  0.05056402  0.82680632  0.74312862     0.11600
H609        H  0.01678074  0.69874835  0.64095411     0.14300
H610        H  0.01780334  0.61732662  0.71334499     0.13100
H611        H  0.01548734  0.79599387  0.87044623     0.10800
H612        H  0.01708475  0.87429150  0.79448359     0.12800
C613        C  0.99072415  0.79107645  0.22090637     0.18900
C614        C  0.00535949  0.79936792  0.26774840    -0.19200
C615        C  0.00851958  0.76216263  0.30031571    -0.11500
C616        C  0.99662515  0.71561991  0.28668533     0.21100
C617        C  0.98184304  0.70740488  0.23988249    -0.20900
C618        C  0.97862702  0.74458853  0.20737770    -0.11700
C619        C  0.99915340  0.67443680  0.31943591    -0.15900
C620        C  0.00664477  0.67775433  0.36647425    -0.29700
C621        C  0.98828944  0.83194534  0.18773420    -0.04000
C622        C  0.98551900  0.82743904  0.14027963    -0.40500
H623        H  0.01485222  0.83480092  0.27913403     0.12300
H624        H  0.02084450  0.77043391  0.33562050     0.11900
H625        H  0.97226362  0.67201129  0.22843615     0.11300
H626        H  0.96584095  0.73646551  0.17218459     0.11600
H627        H  0.99340399  0.63958354  0.30401838     0.14300
H628        H  0.01126120  0.71183468  0.38351065     0.13100
H629        H  0.99095163  0.86723438  0.20298668     0.10800
H630        H  0.98511909  0.79275580  0.12381345     0.12800
C631        C  0.98139303  0.28431409  0.28874408     0.18900
C632        C  0.99721647  0.23777155  0.29567696    -0.19200
C633        C  0.99861936  0.20573120  0.25787602    -0.11500
C634        C  0.98330872  0.21941261  0.21227082     0.21100
C635        C  0.96630796  0.26561576  0.20572631    -0.20900
C636        C  0.96508130  0.29770276  0.24351376    -0.11700
C637        C  0.98588087  0.18736395  0.17038197    -0.15900
C638        C  0.98880819  0.13989224  0.17379271    -0.29700
C639        C  0.98228602  0.31757943  0.32956401    -0.04000
C640        C  0.98480885  0.36506319  0.32484978    -0.40500
H641        H  0.00975291  0.22651002  0.33024312     0.12300
H642        H  0.01298880  0.17093235  0.26451291     0.11900
H643        H  0.95400040  0.27700242  0.17113137     0.11300
H644        H  0.95113154  0.33274934  0.23710737     0.11600
H645        H  0.98377200  0.20347983  0.13536343     0.14300
H646        H  0.98840532  0.12286968  0.20833395     0.13100
H647        H  0.98310262  0.30208877  0.36491953     0.10800
H648        H  0.98637256  0.38111388  0.28984630     0.12800
loop_ 
_geom_bond_atom_site_label_1 
_geom_bond_atom_site_label_2 
_geom_bond_distance 
_geom_bond_site_symmetry_2 
_ccdc_geom_bond_type 
O1          Zr37   2.432   1_545  S
O1           C12   1.290       .  A
O2          Zr36   2.439       .  S
O2           C13   1.293       .  A
O3           Zr9   2.424   1_455  S
O3           C14   1.290       .  A
O4           Zr9   2.482       .  S
O4           C15   1.299   1_554  A
O5          Zr39   2.400       .  S
O5           C15   1.284       .  A
O6          Zr38   2.488   1_545  S
O6           C14   1.302       .  A
O7           Zr9   2.426   1_456  S
O7           C13   1.289       .  A
O8           Zr9   2.447       .  S
O8           C12   1.294       .  A
Zr9          O10   2.338   1_554  S
Zr9          O11   2.347   1_655  S
Zr9          O19   2.326       .  S
Zr9          O17   2.360   1_654  S
O10         Zr36   2.346   1_655  S
O10         Zr39   2.331       .  S
O11         Zr37   2.337   1_445  S
O11         Zr38   2.352   1_545  S
C12         C638   1.477       .  S
C13         C584   1.471       .  S
C14         C494   1.486       .  S
C15         C458   1.476   1_556  S
H16          O17   0.966       .  S
O17         Zr36   2.339       .  S
O17         Zr38   2.353   1_546  S
H18          O19   0.965       .  S
O19         Zr37   2.342   1_545  S
O19         Zr39   2.339   1_554  S
O20         Zr36   2.435   1_565  S
O20          C43   1.291       .  A
O21         Zr37   2.438       .  S
O21          C44   1.293       .  A
O22         Zr38   2.443   1_546  S
O22          C45   1.292       .  A
O23         Zr39   2.451       .  S
O23          C46   1.295       .  A
O24         Zr39   2.436   1_564  S
O24          C47   1.291       .  A
O25         Zr38   2.439       .  S
O25          C48   1.294       .  A
O26         Zr40   2.417   1_455  S
O26          C49   1.288   1_556  A
O27         Zr40   2.467       .  S
O27          C50   1.297       .  A
O28         Zr38   2.493       .  S
O28          C49   1.302       .  A
O29         Zr39   2.395   1_565  S
O29          C50   1.283       .  A
O30         Zr36   2.449       .  S
O30          C45   1.294       .  A
O31         Zr37   2.435   1_455  S
O31          C48   1.291       .  A
O32         Zr37   2.438       .  S
O32          C47   1.293       .  A
O33         Zr36   2.439   1_655  S
O33          C46   1.291       .  A
O34         Zr40   2.426   1_455  S
O34          C43   1.291       .  A
O35         Zr40   2.427   1_554  S
O35          C44   1.289       .  A
Zr36         O42   2.339   1_545  S
Zr36         O54   2.342   1_445  S
Zr37         O41   2.341       .  S
Zr37         O52   2.338   1_655  S
Zr38         O42   2.344   1_554  S
Zr38         O52   2.351       .  S
Zr39         O41   2.338   1_546  S
Zr39         O54   2.329   1_545  S
Zr40         O41   2.328   1_556  S
Zr40         O42   2.350   1_655  S
Zr40         O54   2.329       .  S
Zr40         O52   2.346   1_656  S
C43         C604   1.470       .  S
C44         C622   1.472       .  S
C45         C532   1.483       .  S
C46         C514   1.482       .  S
C47         C566   1.474       .  S
C48         C548   1.476       .  S
C49         C476   1.486       .  S
C50         C440   1.467       .  S
H51          O52   0.966       .  S
H53          O54   0.965       .  S
O55         Zr91   2.441       .  S
O55          C66   1.292       .  A
O56         Zr90   2.434       .  S
O56          C67   1.292       .  A
O57         Zr63   2.441   1_455  S
O57          C68   1.293       .  A
O58         Zr63   2.464       .  S
O58          C69   1.297       .  A
O59         Zr93   2.429       .  S
O59          C69   1.290       .  A
O60         Zr92   2.459       .  S
O60          C68   1.297       .  A
O61         Zr63   2.428       .  S
O61          C67   1.289       .  A
O62         Zr63   2.435       .  S
O62          C66   1.292       .  A
Zr63         O64   2.342       .  S
Zr63         O65   2.341   1_655  S
Zr63         O73   2.338       .  S
Zr63         O71   2.350   1_655  S
O64         Zr90   2.335       .  S
O64         Zr93   2.340       .  S
O65         Zr91   2.343   1_455  S
O65         Zr92   2.357       .  S
C66         C640   1.478       .  S
C67         C586   1.471       .  S
C68         C334   1.484       .  S
C69         C296   1.481       .  S
H70          O71   0.965       .  S
O71         Zr90   2.345   1_455  S
O71         Zr92   2.354       .  S
H72          O73   0.967       .  S
O73         Zr91   2.336       .  S
O73         Zr93   2.343       .  S
O74         Zr90   2.423   1_455  S
O74          C97   1.288       .  A
O75         Zr91   2.434   1_455  S
O75          C98   1.293       .  A
O76         Zr92   2.488       .  S
O76          C99   1.301       .  A
O77         Zr93   2.421       .  S
O77         C100   1.288       .  A
O78         Zr93   2.409       .  S
O78         C101   1.286       .  A
O79         Zr92   2.474       .  S
O79         C102   1.299       .  A
O80         Zr94   2.429       .  S
O80         C103   1.291       .  A
O81         Zr94   2.429   1_655  S
O81         C104   1.289       .  A
O82         Zr92   2.466       .  S
O82         C103   1.297       .  A
O83         Zr93   2.444       .  S
O83         C104   1.294       .  A
O84         Zr90   2.427   1_455  S
O84          C99   1.290       .  A
O85         Zr91   2.428   1_455  S
O85         C102   1.290       .  A
O86         Zr91   2.465       .  S
O86         C101   1.297       .  A
O87         Zr90   2.461       .  S
O87         C100   1.296       .  A
O88         Zr94   2.441       .  S
O88          C97   1.294       .  A
O89         Zr94   2.426       .  S
O89          C98   1.289       .  A
Zr90         O96   2.347   1_655  S
Zr90        O108   2.337       .  S
Zr91         O95   2.330       .  S
Zr91        O106   2.352   1_655  S
Zr92         O96   2.347       .  S
Zr92        O106   2.352       .  S
Zr93         O95   2.329       .  S
Zr93        O108   2.333       .  S
Zr94         O95   2.335   1_455  S
Zr94         O96   2.335       .  S
Zr94        O108   2.336   1_455  S
Zr94        O106   2.341       .  S
C97         C602   1.471       .  S
C98         C620   1.472       .  S
C99         C404   1.487       .  S
C100        C422   1.477       .  S
C101        C370   1.473       .  S
C102        C386   1.482       .  S
C103        C350   1.488       .  S
C104        C314   1.476       .  S
H105        O106   0.966       .  S
H107        O108   0.966       .  S
O109       Zr145   2.427       .  S
O109        C120   1.289       .  A
O110       Zr144   2.433       .  S
O110        C121   1.292       .  A
O111       Zr117   2.452   1_565  S
O111        C122   1.293       .  A
O112       Zr117   2.428       .  S
O112        C123   1.291       .  A
O113       Zr147   2.468       .  S
O113        C123   1.297       .  A
O114       Zr146   2.414       .  S
O114        C122   1.288       .  A
O115       Zr117   2.449       .  S
O115        C121   1.294       .  A
O116       Zr117   2.453   1_565  S
O116        C120   1.296       .  A
Zr117       O118   2.349       .  S
Zr117       O119   2.333   1_545  S
Zr117       O127   2.349       .  S
Zr117       O125   2.341   1_545  S
O118       Zr144   2.352       .  S
O118       Zr147   2.349       .  S
O119       Zr145   2.339       .  S
O119       Zr146   2.324       .  S
C120        C568   1.476       .  S
C121        C550   1.477       .  S
C122        C242   1.475       .  S
C123        C224   1.486       .  S
H124        O125   0.966       .  S
O125       Zr144   2.352   1_565  S
O125       Zr146   2.330       .  S
H126        O127   0.965       .  S
O127       Zr145   2.348   1_545  S
O127       Zr147   2.346       .  S
O128       Zr144   2.447       .  S
O128        C151   1.293   1_545  A
O129       Zr145   2.445       .  S
O129        C152   1.294       .  A
O130       Zr146   2.419       .  S
O130        C153   1.288       .  A
O131       Zr147   2.436       .  S
O131        C154   1.292       .  A
O132       Zr147   2.458       .  S
O132        C155   1.296       .  A
O133       Zr146   2.421       .  S
O133        C156   1.288       .  A
O134       Zr148   2.462       .  S
O134        C157   1.297       .  A
O135       Zr148   2.422   1_545  S
O135        C158   1.289       .  A
O136       Zr146   2.402       .  S
O136        C157   1.284       .  A
O137       Zr147   2.477       .  S
O137        C158   1.300       .  A
O138       Zr144   2.475   1_565  S
O138        C153   1.299       .  A
O139       Zr145   2.448       .  S
O139        C156   1.294       .  A
O140       Zr145   2.429   1_545  S
O140        C155   1.290       .  A
O141       Zr144   2.467       .  S
O141        C154   1.298       .  A
O142       Zr148   2.446       .  S
O142        C151   1.294       .  A
O143       Zr148   2.442       .  S
O143        C152   1.292       .  A
Zr144       O150   2.339   1_545  S
Zr144       O162   2.348       .  S
Zr145       O149   2.339   1_565  S
Zr145       O160   2.338       .  S
Zr146       O150   2.335       .  S
Zr146       O160   2.336       .  S
Zr147       O149   2.345       .  S
Zr147       O162   2.354       .  S
Zr148       O149   2.348   1_565  S
Zr148       O150   2.335       .  S
Zr148       O162   2.351   1_565  S
Zr148       O160   2.337       .  S
C151        C530   1.482       .  S
C152        C512   1.482       .  S
C153        C352   1.482       .  S
C154        C332   1.485       .  S
C155        C298   1.478       .  S
C156        C316   1.473       .  S
C157        C260   1.471       .  S
C158        C278   1.483       .  S
H159        O160   0.965       .  S
H161        O162   0.967       .  S
O163       Zr199   2.412   1_554  S
O163        C174   1.287       .  A
O164       Zr198   2.417       .  S
O164        C175   1.288       .  A
O165       Zr171   2.470       .  S
O165        C176   1.299       .  A
O166       Zr171   2.489   1_556  S
O166        C177   1.301       .  A
O167       Zr201   2.422       .  S
O167        C177   1.288       .  A
O168       Zr200   2.438       .  S
O168        C176   1.292       .  A
O169       Zr171   2.485       .  S
O169        C175   1.301       .  A
O170       Zr171   2.499       .  S
O170        C174   1.303       .  A
Zr171       O172   2.354   1_554  S
Zr171       O173   2.354       .  S
Zr171       O181   2.356   1_554  S
Zr171       O179   2.368       .  S
O172       Zr198   2.343   1_556  S
O172       Zr201   2.332       .  S
O173       Zr199   2.350   1_554  S
O173       Zr200   2.349       .  S
C174        C496   1.488       .  S
C175        C478   1.482       .  S
C176        C388   1.485       .  S
C177        C406   1.486       .  S
H178        O179   0.967       .  S
O179       Zr198   2.349       .  S
O179       Zr200   2.341       .  S
H180        O181   0.965       .  S
O181       Zr199   2.360       .  S
O181       Zr201   2.355       .  S
O182       Zr198   2.468       .  S
O182        C205   1.296       .  A
O183       Zr199   2.466       .  S
O183        C206   1.296       .  A
O184       Zr200   2.455       .  S
O184        C207   1.295       .  A
O185       Zr201   2.448       .  S
O185        C208   1.294       .  A
O186       Zr201   2.421       .  S
O186        C209   1.289       .  A
O187       Zr200   2.426       .  S
O187        C210   1.290       .  A
O188       Zr202   2.416   1_554  S
O188        C211   1.287       .  A
O189       Zr202   2.423       .  S
O189        C212   1.290       .  A
O190       Zr200   2.461       .  S
O190        C211   1.296       .  A
O191       Zr201   2.456       .  S
O191        C212   1.294       .  A
O192       Zr198   2.414       .  S
O192        C207   1.286       .  A
O193       Zr199   2.462   1_554  S
O193        C210   1.297       .  A
O194       Zr199   2.469       .  S
O194        C209   1.298       .  A
O195       Zr198   2.409   1_556  S
O195        C208   1.286       .  A
O196       Zr202   2.406   1_554  S
O196        C205   1.285       .  A
O197       Zr202   2.406       .  S
O197        C206   1.284       .  A
Zr198       O204   2.323       .  S
Zr198       O216   2.334   1_554  S
Zr199       O203   2.328       .  S
Zr199       O214   2.342   1_556  S
Zr200       O204   2.331       .  S
Zr200       O214   2.352       .  S
Zr201       O203   2.334       .  S
Zr201       O216   2.336       .  S
Zr202       O203   2.322       .  S
Zr202       O204   2.332   1_556  S
Zr202       O216   2.336       .  S
Zr202       O214   2.337   1_556  S
C205        C442   1.470       .  S
C206        C460   1.468       .  S
C207        C244   1.471       .  S
C208        C262   1.469       .  S
C209        C280   1.479       .  S
C210        C226   1.478       .  S
C211        C368   1.472       .  S
C212        C424   1.481       .  S
H213        O214   0.966       .  S
H215        O216   0.966       .  S
C217        C225   1.493       .  S
C217        C218   1.411       .  A
C217        C222   1.403       .  A
C218        C219   1.399       .  A
C218        H227   1.081       .  S
C219        C220   1.406       .  A
C219        H228   1.081       .  S
C220        C223   1.492       .  S
C220        C221   1.407       .  A
C221        C222   1.401       .  A
C221        H229   1.083       .  S
C222        H230   1.083       .  S
C223        H231   1.087       .  S
C223        C224   1.353       .  D
C224        H232   1.084       .  S
C225        H233   1.087       .  S
C225        C226   1.346       .  D
C226        H234   1.085       .  S
C235        C243   1.481       .  S
C235        C236   1.407       .  A
C235        C240   1.401       .  A
C236        C237   1.395       .  A
C236        H245   1.083       .  S
C237        C238   1.404       .  A
C237        H246   1.083       .  S
C238        C241   1.478       .  S
C238        C239   1.404       .  A
C239        C240   1.399       .  A
C239        H247   1.083       .  S
C240        H248   1.083       .  S
C241        H249   1.087       .  S
C241        C242   1.348       .  D
C242        H250   1.086       .  S
C243        H251   1.086       .  S
C243        C244   1.341       .  D
C244        H252   1.087       .  S
C253        C261   1.483       .  S
C253        C254   1.400       .  A
C253        C258   1.409       .  A
C254        C255   1.396       .  A
C254        H263   1.084       .  S
C255        C256   1.412       .  A
C255        H264   1.080       .  S
C256        C259   1.487       .  S
C256        C257   1.400       .  A
C257        C258   1.396       .  A
C257        H265   1.083       .  S
C258        H266   1.081       .  S
C259        H267   1.087       .  S
C259        C260   1.340       .  D
C260        H268   1.084       .  S
C261        H269   1.087       .  S
C261        C262   1.342       .  D
C262        H270   1.084       .  S
C271        C279   1.492       .  S
C271        C272   1.402       .  A
C271        C276   1.409       .  A
C272        C273   1.401       .  A
C272        H281   1.084       .  S
C273        C274   1.412       .  A
C273        H282   1.081       .  S
C274        C277   1.497       .  S
C274        C275   1.403       .  A
C275        C276   1.400       .  A
C275        H283   1.083       .  S
C276        H284   1.081       .  S
C277        H285   1.087       .  S
C277        C278   1.345       .  D
C278        H286   1.084       .  S
C279        H287   1.087       .  S
C279        C280   1.345       .  D
C280        H288   1.086       .  S
C289        C297   1.493       .  S
C289        C290   1.404       .  A
C289        C294   1.409       .  A
C290        C291   1.402       .  A
C290        H299   1.083       .  S
C291        C292   1.410       .  A
C291        H300   1.081       .  S
C292        C295   1.492       .  S
C292        C293   1.402       .  A
C293        C294   1.398       .  A
C293        H301   1.083       .  S
C294        H302   1.081       .  S
C295        H303   1.087       .  S
C295        C296   1.345       .  D
C296        H304   1.085       .  S
C297        H305   1.087       .  S
C297        C298   1.346       .  D
C298        H306   1.084       .  S
C307        C315   1.489       .  S
C307        C308   1.402       .  A
C307        C312   1.410       .  A
C308        C309   1.399       .  A
C308        H317   1.083       .  S
C309        C310   1.410       .  A
C309        H318   1.081       .  S
C310        C313   1.487       .  S
C310        C311   1.401       .  A
C311        C312   1.396       .  A
C311        H319   1.084       .  S
C312        H320   1.081       .  S
C313        H321   1.087       .  S
C313        C314   1.344       .  D
C314        H322   1.084       .  S
C315        H323   1.087       .  S
C315        C316   1.343       .  D
C316        H324   1.084       .  S
C325        C333   1.495       .  S
C325        C326   1.402       .  A
C325        C330   1.410       .  A
C326        C327   1.400       .  A
C326        H335   1.084       .  S
C327        C328   1.412       .  A
C327        H336   1.079       .  S
C328        C331   1.502       .  S
C328        C329   1.406       .  A
C329        C330   1.403       .  A
C329        H337   1.083       .  S
C330        H338   1.081       .  S
C331        H339   1.087       .  S
C331        C332   1.349       .  D
C332        H340   1.082       .  S
C333        H341   1.087       .  S
C333        C334   1.348       .  D
C334        H342   1.084       .  S
C343        C351   1.499       .  S
C343        C344   1.414       .  A
C343        C348   1.404       .  A
C344        C345   1.403       .  A
C344        H353   1.080       .  S
C345        C346   1.406       .  A
C345        H354   1.082       .  S
C346        C349   1.492       .  S
C346        C347   1.405       .  A
C347        C348   1.400       .  A
C347        H355   1.083       .  S
C348        H356   1.083       .  S
C349        H357   1.087       .  S
C349        C350   1.353       .  D
C350        H358   1.085       .  S
C351        H359   1.087       .  S
C351        C352   1.346       .  D
C352        H360   1.083       .  S
C361        C369   1.486       .  S
C361        C362   1.400       .  A
C361        C366   1.410       .  A
C362        C363   1.396       .  A
C362        H371   1.083       .  S
C363        C364   1.409       .  A
C363        H372   1.081       .  S
C364        C367   1.488       .  S
C364        C365   1.402       .  A
C365        C366   1.400       .  A
C365        H373   1.084       .  S
C366        H374   1.082       .  S
C367        H375   1.087       .  S
C367        C368   1.343       .  D
C368        H376   1.085       .  S
C369        H377   1.087       .  S
C369        C370   1.341       .  D
C370        H378   1.086       .  S
C379        C387   1.493       .  S
C379        C380   1.402       .  A
C379        C384   1.409       .  A
C380        C381   1.401       .  A
C380        H389   1.083       .  S
C381        C382   1.411       .  A
C381        H390   1.082       .  S
C382        C385   1.497       .  S
C382        C383   1.404       .  A
C383        C384   1.403       .  A
C383        H391   1.083       .  S
C384        H392   1.082       .  S
C385        H393   1.087       .  S
C385        C386   1.346       .  D
C386        H394   1.085       .  S
C387        H395   1.087       .  S
C387        C388   1.346       .  D
C388        H396   1.086       .  S
C397        C405   1.505       .  S
C397        C398   1.406       .  A
C397        C402   1.412       .  A
C398        C399   1.406       .  A
C398        H407   1.083       .  S
C399        C400   1.410       .  A
C399        H408   1.082       .  S
C400        C403   1.500       .  S
C400        C401   1.404       .  A
C401        C402   1.404       .  A
C401        H409   1.083       .  S
C402        H410   1.081       .  S
C403        H411   1.087       .  S
C403        C404   1.347       .  D
C404        H412   1.086       .  S
C405        H413   1.087       .  S
C405        C406   1.348       .  D
C406        H414   1.084       .  S
C415        C423   1.489       .  S
C415        C416   1.406       .  A
C415        C420   1.406       .  A
C416        C417   1.398       .  A
C416        H425   1.081       .  S
C417        C418   1.410       .  A
C417        H426   1.081       .  S
C418        C421   1.491       .  S
C418        C419   1.403       .  A
C419        C420   1.400       .  A
C419        H427   1.083       .  S
C420        H428   1.083       .  S
C421        H429   1.087       .  S
C421        C422   1.345       .  D
C422        H430   1.085       .  S
C423        H431   1.087       .  S
C423        C424   1.351       .  D
C424        H432   1.084       .  S
C433        C441   1.483       .  S
C433        C434   1.400       .  A
C433        C438   1.408   1_556  A
C434        C435   1.398       .  A
C434        H443   1.083       .  S
C435        C436   1.411       .  A
C435        H444   1.082       .  S
C436        C439   1.484       .  S
C436        C437   1.400   1_556  A
C437        C438   1.396       .  A
C437        H445   1.083       .  S
C438        H446   1.083       .  S
C439        H447   1.087   1_556  S
C439        C440   1.338       .  D
C440        H448   1.086       .  S
C441        H449   1.087       .  S
C441        C442   1.340   1_556  D
C442        H450   1.087       .  S
C451        C459   1.490       .  S
C451        C452   1.401       .  A
C451        C456   1.412   1_554  A
C452        C453   1.398       .  A
C452        H461   1.084       .  S
C453        C454   1.410       .  A
C453        H462   1.082       .  S
C454        C457   1.491       .  S
C454        C455   1.401   1_554  A
C455        C456   1.400       .  A
C455        H463   1.083       .  S
C456        H464   1.080       .  S
C457        H465   1.086       .  S
C457        C458   1.342       .  D
C458        H466   1.087   1_554  S
C459        H467   1.087       .  S
C459        C460   1.341   1_554  D
C460        H468   1.084       .  S
C469        C477   1.497       .  S
C469        C470   1.402   1_554  A
C469        C474   1.411       .  A
C470        C471   1.402       .  A
C470        H479   1.083       .  S
C471        C472   1.412   1_556  A
C471        H480   1.081       .  S
C472        C475   1.500       .  S
C472        C473   1.404       .  A
C473        C474   1.403       .  A
C473        H481   1.083       .  S
C474        H482   1.082       .  S
C475        H483   1.086       .  S
C475        C476   1.346       .  D
C476        H484   1.085   1_554  S
C477        H485   1.087   1_554  S
C477        C478   1.344       .  D
C478        H486   1.086       .  S
C487        C495   1.503       .  S
C487        C488   1.402       .  A
C487        C492   1.413   1_554  A
C488        C489   1.403       .  A
C488        H497   1.083       .  S
C489        C490   1.413       .  A
C489        H498   1.080       .  S
C490        C493   1.505       .  S
C490        C491   1.405   1_554  A
C491        C492   1.405       .  A
C491        H499   1.083       .  S
C492        H500   1.081       .  S
C493        H501   1.087       .  S
C493        C494   1.348       .  D
C494        H502   1.083       .  S
C495        H503   1.086       .  S
C495        C496   1.345       .  D
C496        H504   1.085       .  S
C505        C513   1.490   1_565  S
C505        C506   1.403   1_565  A
C505        C510   1.408       .  A
C506        C507   1.399       .  A
C506        H515   1.083       .  S
C507        C508   1.409   1_545  A
C507        H516   1.080       .  S
C508        C511   1.494       .  S
C508        C509   1.406       .  A
C509        C510   1.401       .  A
C509        H517   1.083       .  S
C510        H518   1.081       .  S
C511        H519   1.087       .  S
C511        C512   1.349       .  D
C512        H520   1.083       .  S
C513        H521   1.087   1_545  S
C513        C514   1.348       .  D
C514        H522   1.085       .  S
C523        C531   1.491       .  S
C523        C524   1.403   1_545  A
C523        C528   1.409       .  A
C524        C525   1.400       .  A
C524        H533   1.083       .  S
C525        C526   1.409   1_565  A
C525        H534   1.081       .  S
C526        C529   1.494       .  S
C526        C527   1.405       .  A
C527        C528   1.402       .  A
C527        H535   1.083       .  S
C528        H536   1.082       .  S
C529        H537   1.087       .  S
C529        C530   1.349   1_545  D
C530        H538   1.084   1_565  S
C531        H539   1.087       .  S
C531        C532   1.347       .  D
C532        H540   1.085       .  S
C541        C549   1.484       .  S
C541        C542   1.404       .  A
C541        C546   1.406   1_565  A
C542        C543   1.399       .  A
C542        H551   1.084       .  S
C543        C544   1.407       .  A
C543        H552   1.082       .  S
C544        C547   1.483       .  S
C544        C545   1.402   1_565  A
C545        C546   1.396       .  A
C545        H553   1.083       .  S
C546        H554   1.081       .  S
C547        H555   1.087   1_565  S
C547        C548   1.344       .  D
C548        H556   1.085       .  S
C549        H557   1.087       .  S
C549        C550   1.348   1_565  D
C550        H558   1.085       .  S
C559        C567   1.485       .  S
C559        C560   1.401   1_565  A
C559        C564   1.409       .  A
C560        C561   1.396       .  A
C560        H569   1.083       .  S
C561        C562   1.408   1_545  A
C561        H570   1.081       .  S
C562        C565   1.486       .  S
C562        C563   1.403       .  A
C563        C564   1.399       .  A
C563        H571   1.084       .  S
C564        H572   1.082       .  S
C565        H573   1.087       .  S
C565        C566   1.346       .  D
C566        H574   1.084       .  S
C567        H575   1.087       .  S
C567        C568   1.343       .  D
C568        H576   1.085       .  S
C577        C585   1.483       .  S
C577        C578   1.403       .  A
C577        C582   1.408   1_455  A
C578        C579   1.395       .  A
C578        H587   1.084       .  S
C579        C580   1.407       .  A
C579        H588   1.082       .  S
C580        C583   1.480       .  S
C580        C581   1.401   1_455  A
C581        C582   1.395       .  A
C581        H589   1.084       .  S
C582        H590   1.080       .  S
C583        H591   1.087       .  S
C583        C584   1.343       .  D
C584        H592   1.085       .  S
C585        H593   1.087       .  S
C585        C586   1.345   1_455  D
C586        H594   1.084       .  S
C595        C603   1.481       .  S
C595        C596   1.402       .  A
C595        C600   1.407       .  A
C596        C597   1.396       .  A
C596        H605   1.084   1_455  S
C597        C598   1.408       .  A
C597        H606   1.081   1_455  S
C598        C601   1.481       .  S
C598        C599   1.400       .  A
C599        C600   1.394       .  A
C599        H607   1.083       .  S
C600        H608   1.081       .  S
C601        H609   1.087       .  S
C601        C602   1.342       .  D
C602        H610   1.085       .  S
C603        H611   1.087       .  S
C603        C604   1.345       .  D
C604        H612   1.084       .  S
C613        C621   1.485       .  S
C613        C614   1.402   1_655  A
C613        C618   1.408       .  A
C614        C615   1.396       .  A
C614        H623   1.084       .  S
C615        C616   1.409   1_455  A
C615        H624   1.079       .  S
C616        C619   1.484       .  S
C616        C617   1.402       .  A
C617        C618   1.394       .  A
C617        H625   1.084       .  S
C618        H626   1.080       .  S
C619        H627   1.087       .  S
C619        C620   1.344   1_655  D
C620        H628   1.083       .  S
C621        H629   1.087       .  S
C621        C622   1.344       .  D
C622        H630   1.083       .  S
C631        C639   1.485       .  S
C631        C632   1.403       .  A
C631        C636   1.406       .  A
C632        C633   1.398       .  A
C632        H641   1.084   1_655  S
C633        C634   1.409       .  A
C633        H642   1.081   1_655  S
C634        C637   1.489       .  S
C634        C635   1.404       .  A
C635        C636   1.398       .  A
C635        H643   1.083       .  S
C636        H644   1.081       .  S
C637        H645   1.087       .  S
C637        C638   1.345       .  D
C638        H646   1.084       .  S
C639        H647   1.087       .  S
C639        C640   1.348       .  D
C640        H648   1.085       .  S
