geometry optimzed in LAMMPS
_audit_creation_date              2020-11-30 
_audit_creation_method            'lammps2cif' 
_symmetry_space_group_name_H-M    'P1' 
_symmetry_Int_Tables_number       1 
_symmetry_cell_setting            triclinic 
loop_ 
_symmetry_equiv_pos_as_xyz 
  x,y,z 
_cell_length_a                    36.6880401 
_cell_length_b                    48.82996686648217 
_cell_length_c                    28.463832664556627 
_cell_angle_alpha                 83.17597675774718 
_cell_angle_beta                  93.85109103818091 
_cell_angle_gamma                 89.63051032906058 
loop_ 
_atom_site_label 
_atom_site_type_symbol 
_atom_site_fract_x 
_atom_site_fract_y 
_atom_site_fract_z 
_atom_site_charge 
O1          O  0.21247734  0.22854112  0.46447001    -0.72900
O2          O  0.28685783  0.28440307  0.46580008    -0.73000
O3          O  0.28631585  0.22922291  0.45866287    -0.73000
O4          O  0.21323538  0.28396479  0.47365296    -0.73100
O5          O  0.21542699  0.26687137  0.04937043    -0.73000
O6          O  0.29330811  0.21521808  0.04495269    -0.73000
O7          O  0.28804410  0.27067605  0.04444270    -0.73000
O8          O  0.22023067  0.21225195  0.04805754    -0.73000
Ni9        Ni  0.24933178  0.25687998  0.46262431     1.25400
Ni10       Ni  0.25460535  0.24104365  0.04937750     1.25400
C11         C  0.20464246  0.21529009  0.50407673     0.89200
C12         C  0.29541268  0.28387626  0.00466122     0.89200
C13         C  0.30174675  0.21558025  0.49616549     0.89200
C14         C  0.19905054  0.27859181  0.01110390     0.89400
O15         O  0.46213054  0.47858755  0.47260050    -0.72900
O16         O  0.03501003  0.03304562  0.47220556    -0.73000
O17         O  0.03296050  0.47851759  0.46041746    -0.73000
O18         O  0.46440303  0.03245575  0.48083174    -0.73100
O19         O  0.47021978  0.01715661  0.06550137    -0.73000
O20         O  0.04120447  0.46341474  0.03544318    -0.73000
O21         O  0.04644653  0.01788063  0.06107852    -0.73000
O22         O  0.46705159  0.46246534  0.04279833    -0.73000
Ni23       Ni  0.49955654  0.00498096  0.47283166     1.25400
Ni24       Ni  0.00564036  0.49139586  0.04555911     1.25400
C25         C  0.45053431  0.45852018  0.00297731     0.89200
C26         C  0.05394797  0.03104582  0.02117342     0.89200
C27         C  0.04812825  0.45844742  0.99353014     0.89200
C28         C  0.45444572  0.03006242  0.02756901     0.89400
O29         O  0.08470463  0.07155149  0.46489571    -0.79400
O30         O  0.16322694  0.18304493  0.47091307    -0.64100
O31         O  0.14098517  0.10597902  0.49166873    -1.10700
C32         C  0.06232631  0.12846226  0.10694367     1.07500
O33         O  0.16881823  0.17527682  0.05425010    -0.77300
O34         O  0.14778504  0.13719469  0.11990236    -0.64900
Ni35       Ni  0.13015031  0.08456097  0.44170873     1.34900
C36         C  0.15806459  0.11218223  0.12175901     0.86200
O37         O  0.18652044  0.13866829  0.43398836    -0.77900
O38         O  0.17518621  0.09557019  0.41592774    -0.88100
C39         C  0.17791722  0.18387024  0.01295399     0.85800
O40         O  0.10284741  0.11173170  0.39942091    -0.66300
O41         O  0.07646468  0.15210325  0.09767125    -0.85600
C42         C  0.09657900  0.13744074  0.39827087     0.86600
C43         C  0.19383407  0.11753420  0.41388852     1.08200
H44         H  0.09375417  0.14699948  0.00715821     0.40000
O45         O  0.11521228  0.13966704  0.02615746    -1.08300
O46         O  0.14517165  0.09596380  0.09313954    -0.64900
Ni47       Ni  0.10644243  0.10149891  0.04316498     1.26300
O48         O  0.11313112  0.15222156  0.42683756    -0.65200
O49         O  0.07196579  0.10702164  0.08915565    -0.77400
C50         C  0.08037494  0.05337428  0.01704593     0.86000
O51         O  0.09597645  0.06291953  0.05273655    -0.64600
Ni52       Ni  0.12225327  0.16293929  0.07393612     1.27400
Ni53       Ni  0.15106382  0.14432632  0.47801761     1.26100
H54         H  0.16353681  0.08843871  0.01573876     0.40500
O55         O  0.41768607  0.05569985  0.07224672    -0.79400
O56         O  0.34434691  0.17417829  0.04082031    -0.64100
O57         O  0.36490880  0.09748764  0.03736368    -1.10700
C58         C  0.44780567  0.14231784  0.41319036     1.07500
O59         O  0.33784514  0.18907368  0.45217254    -0.77300
O60         O  0.35621380  0.14989019  0.39946588    -0.64900
Ni61       Ni  0.37478578  0.07246928  0.09367125     1.34900
C62         C  0.35380751  0.12380875  0.40284879     0.86200
O63         O  0.31828309  0.12845632  0.08476288    -0.77900
O64         O  0.33280296  0.08601308  0.12118243    -0.88100
C65         C  0.33006944  0.18754534  0.00294782     0.85800
O66         O  0.40635826  0.09599389  0.12557704    -0.66300
O67         O  0.42761963  0.16391845  0.40926400    -0.85600
C68         C  0.41014657  0.12188077  0.12392361     0.86600
C69         C  0.31326986  0.10802654  0.11538347     1.08200
H70         H  0.41432131  0.15830605  0.50727729     0.40000
O71         O  0.39396586  0.15042737  0.49051400    -1.08300
O72         O  0.37152186  0.10759434  0.43478131    -0.64900
Ni73       Ni  0.40651588  0.11274301  0.48677101     1.26300
O74         O  0.39148208  0.13931661  0.09462202    -0.65200
O75         O  0.44339805  0.12111861  0.44279525    -0.77400
C76         C  0.42619828  0.05112916  0.03127535     0.86000
O77         O  0.41886607  0.07483228  0.48792729    -0.64600
Ni78       Ni  0.38335777  0.17494659  0.43374764     1.27400
Ni79       Ni  0.35529479  0.13566535  0.04199870     1.26100
H80         H  0.34359809  0.09050642  0.02112354     0.40500
O81         O  0.42764971  0.43239737  0.46602367    -0.79400
O82         O  0.34269276  0.32386547  0.47317964    -0.64100
O83         O  0.36897954  0.39858658  0.48336510    -1.10700
C84         C  0.42951218  0.35353469  0.11665971     1.07500
O85         O  0.31948211  0.31901022  0.04490339    -0.77300
O86         O  0.33768786  0.35314196  0.10815019    -0.64900
Ni87       Ni  0.38391927  0.42266986  0.43162761     1.34900
C88         C  0.33534384  0.37928453  0.10350150     0.86200
O89         O  0.32207163  0.37228057  0.42153405    -0.77900
O90         O  0.34048109  0.41496306  0.39432458    -0.88100
C91         C  0.32988933  0.31047250  0.50945226     0.85800
O92         O  0.41262940  0.39721235  0.40287614    -0.66300
O93         O  0.40820617  0.33313886  0.11478846    -0.85600
C94         C  0.41453068  0.37107592  0.40579934     0.86600
C95         C  0.31884607  0.39467073  0.39293502     1.08200
H96         H  0.40122477  0.34137582  0.01728627     0.40000
O97         O  0.37969762  0.35025928  0.02662984    -1.08300
O98         O  0.35472652  0.39458331  0.07578841    -0.64900
Ni99       Ni  0.39265683  0.38708993  0.03411167     1.26300
O100        O  0.39435164  0.35540027  0.43181416    -0.65200
O101        O  0.42627751  0.37616496  0.08861320    -0.77400
C102        C  0.42196582  0.43758337  0.99906738     0.86000
O103        O  0.40844800  0.42460946  0.03524039    -0.64600
Ni104      Ni  0.36404286  0.32682094  0.07862308     1.27400
Ni105      Ni  0.35691557  0.36162148  0.47491422     1.26100
H106        H  0.34731353  0.40705513  0.49317095     0.40500
O107        O  0.16322475  0.30404440  0.05639879    -0.79400
O108        O  0.09362757  0.42403681  0.02103920    -0.64100
O109        O  0.11138165  0.34652962  0.02623005    -1.10700
C110        C  0.16947658  0.38259371  0.38723545     1.07500
O111        O  0.07033184  0.43148875  0.45165585    -0.77300
O112        O  0.07514281  0.38531876  0.40503959    -0.65300
Ni113      Ni  0.12632252  0.32396583  0.08434856     1.34900
C114        C  0.07776394  0.35950638  0.41816254     0.86200
O115        O  0.07703104  0.38221729  0.08300598    -0.77900
O116        O  0.09141690  0.34057049  0.12134480    -0.88100
C117        C  0.07273767  0.43528184  0.98652725     0.85800
O118        O  0.16336215  0.34806298  0.10174896    -0.66300
O119        O  0.14485135  0.40157403  0.38093656    -0.85600
C120        C  0.17018637  0.37337930  0.09146625     0.86600
C121        C  0.07490501  0.36382197  0.11824811     1.08200
H122        H  0.15426864  0.40792569  0.48179606     0.40000
O123        O  0.13241714  0.39739946  0.47681275    -1.08300
O124        O  0.10404308  0.34858239  0.44575999    -0.64900
Ni125      Ni  0.14699958  0.35991860  0.48072336     1.26300
O126        O  0.14928094  0.39037642  0.06388113    -0.65200
O127        O  0.17315888  0.36521311  0.42434847    -0.77400
C128        C  0.17070709  0.29943081  0.01504825     0.86000
O129        O  0.16200478  0.32247853  0.48755495    -0.64600
Ni130      Ni  0.10790177  0.41473937  0.41888786     1.27400
Ni131      Ni  0.10343055  0.38533517  0.02656229     1.26100
H132        H  0.08816054  0.33917908  0.01612406     0.40500
C133        C  0.00816758  0.14718927  0.20628988     0.03800
C134        C  0.47123634  0.15824429  0.21311983     0.03700
C135        C  0.46319827  0.16218636  0.25929169    -0.16800
C136        C  0.49034906  0.15838070  0.29730335     0.03800
C137        C  0.02422044  0.14642470  0.29118990     0.03700
C138        C  0.03360454  0.14244311  0.24553696    -0.16800
H139        H  0.06108176  0.13556919  0.24041985     0.05800
H140        H  0.43517201  0.16647889  0.26633726     0.05800
C141        C  0.02723083  0.36304402  0.23815287     0.03800
C142        C  0.48756400  0.36339858  0.22846484     0.03700
C143        C  0.47022237  0.36952719  0.26849988    -0.16800
C144        C  0.48648032  0.36339685  0.31458019     0.03800
C145        C  0.01833135  0.35987674  0.32431996     0.03700
C146        C  0.03888122  0.35401411  0.28613593    -0.16800
H147        H  0.06283074  0.34069693  0.29365231     0.05800
H148        H  0.44343747  0.37942937  0.26365155     0.05800
C149        C  0.26447433  0.38679506  0.19613366     0.03800
C150        C  0.22885921  0.39903092  0.18816589     0.03700
C151        C  0.21012385  0.40469708  0.22771068    -0.16800
C152        C  0.22404479  0.39648641  0.27454945     0.03800
C153        C  0.25944162  0.38432711  0.28213188     0.03700
C154        C  0.27896196  0.37977377  0.24297082    -0.16800
H155        H  0.30593039  0.37022930  0.24911792     0.05800
H156        H  0.18272540  0.41349749  0.22200922     0.05800
C157        C  0.22956800  0.11503640  0.22480526     0.03800
C158        C  0.26521800  0.10344171  0.22805813     0.03700
C159        C  0.28834349  0.10505887  0.26915958    -0.16800
C160        C  0.27659741  0.11871027  0.30611516     0.03800
C161        C  0.24027937  0.12833036  0.30376695     0.03700
C162        C  0.21732405  0.12669387  0.26330131    -0.16800
H163        H  0.18966707  0.13498498  0.26148788     0.05800
H164        H  0.31658689  0.09818255  0.27024065     0.05800
C165        C  0.20481547  0.38168185  0.11456412    -0.15000
C166        C  0.20675080  0.40232052  0.14163047    -0.30100
H167        H  0.22470707  0.36500652  0.12184582     0.14100
H168        H  0.18432917  0.41728207  0.13724499     0.14600
C169        C  0.19954363  0.39986673  0.31346580    -0.15000
C170        C  0.19547301  0.38012059  0.35002622    -0.30100
H171        H  0.18194978  0.41809633  0.30949305     0.14100
H172        H  0.21183647  0.36130771  0.35303660     0.14600
C173        C  0.05215284  0.37069909  0.15706857    -0.15000
C174        C  0.04956299  0.35486407  0.19918342    -0.30100
H175        H  0.03824268  0.39061074  0.15120277     0.14100
H176        H  0.06580084  0.33597033  0.20645679     0.14600
C177        C  0.04818955  0.34029777  0.40632180    -0.15000
C178        C  0.02257485  0.34130571  0.36967047    -0.30100
H179        H  0.04658781  0.32238410  0.43271257     0.14100
H180        H  0.00292727  0.32471855  0.37193066     0.14600
C181        C  0.28912692  0.39814986  0.35497971    -0.15000
C182        C  0.27869487  0.37774779  0.32972429    -0.30100
H183        H  0.28015573  0.41911666  0.34194965     0.14100
H184        H  0.29088261  0.35731620  0.33903928     0.14600
C185        C  0.30925500  0.39226567  0.13270637    -0.15000
C186        C  0.28572650  0.37677338  0.15869109    -0.30100
H187        H  0.31041713  0.41432827  0.13461676     0.14100
H188        H  0.28552432  0.35461104  0.15758723     0.14600
C189        C  0.46630813  0.37334258  0.35324574    -0.15000
C190        C  0.44075518  0.35834903  0.37641596    -0.30100
H191        H  0.46831059  0.39518866  0.35685393     0.14100
H192        H  0.43790289  0.33668344  0.37181557     0.14600
C193        C  0.45876447  0.35001026  0.15471618    -0.15000
C194        C  0.46675459  0.36988334  0.18205411    -0.30100
H195        H  0.46940925  0.32924212  0.16578666     0.14100
H196        H  0.45261944  0.38971318  0.17443270     0.14600
C197        C  0.28196834  0.09391220  0.18735312    -0.15000
C198        C  0.28471374  0.11132559  0.14777585    -0.30100
H199        H  0.29920864  0.07548983  0.19402058     0.14100
H200        H  0.27004971  0.13096786  0.14315505     0.14600
C201        C  0.32910535  0.11198365  0.36748814    -0.15000
C202        C  0.30284618  0.12790270  0.34258343    -0.30100
H203        H  0.33177474  0.09035197  0.36262327     0.14100
H204        H  0.29894888  0.14890853  0.35059590     0.14600
C205        C  0.44107723  0.15465978  0.17630424    -0.15000
C206        C  0.43927064  0.13061727  0.15742003    -0.30100
H207        H  0.41912827  0.16988248  0.16867165     0.14100
H208        H  0.45979959  0.11485111  0.17028692     0.14600
C209        C  0.47881120  0.16237950  0.34442293    -0.15000
C210        C  0.47561072  0.14111478  0.37837331    -0.30100
H211        H  0.46447716  0.18170372  0.34644024     0.14100
H212        H  0.48835472  0.12131020  0.37530000     0.14600
C213        C  0.22373397  0.13665628  0.34543101    -0.15000
C214        C  0.22446658  0.11840507  0.38429701    -0.30100
H215        H  0.20326737  0.15316074  0.34023966     0.14100
H216        H  0.24124704  0.09978117  0.38652690     0.14600
C217        C  0.18639049  0.10219390  0.15954777    -0.15000
C218        C  0.20666612  0.12086865  0.18024068    -0.30100
H219        H  0.18967474  0.08030324  0.17149525     0.14100
H220        H  0.20289407  0.14268332  0.16770851     0.14600
C221        C  0.05038282  0.13536086  0.33128479    -0.15000
C222        C  0.06841213  0.15050012  0.36190826    -0.30100
H223        H  0.05746030  0.11364454  0.33242049     0.14100
H224        H  0.06271709  0.17248017  0.35984492     0.14600
C225        C  0.02113133  0.14772707  0.15847017    -0.15000
C226        C  0.03594362  0.12541363  0.14371663    -0.30100
H227        H  0.02275107  0.16783233  0.13783185     0.14100
H228        H  0.03306818  0.10523517  0.16368912     0.14600
O229        O  0.21281816  0.21778223  0.96897195    -0.72900
O230        O  0.28185216  0.27684269  0.96531672    -0.73000
O231        O  0.28649148  0.22095105  0.96587975    -0.73000
O232        O  0.20818110  0.27326089  0.97033298    -0.73100
O233        O  0.22303641  0.27518692  0.55225291    -0.73000
O234        O  0.29338766  0.21994809  0.53747030    -0.73000
O235        O  0.29524717  0.27431910  0.54434765    -0.73000
O236        O  0.22061292  0.22069790  0.54329621    -0.73000
Ni237      Ni  0.24718100  0.24738832  0.96464240     1.25400
Ni238      Ni  0.25829921  0.24717834  0.54692896     1.25400
C239        C  0.20497491  0.20564034  0.00933041     0.89200
C240        C  0.30302410  0.28852901  0.50564631     0.89200
C241        C  0.30228508  0.20915707  0.00479894     0.89200
C242        C  0.20698436  0.28899881  0.51574326     0.89400
O243        O  0.45930020  0.47208456  0.96417529    -0.72900
O244        O  0.03835893  0.02534130  0.98216944    -0.73000
O245        O  0.03271173  0.47272052  0.95684426    -0.73000
O246        O  0.46385585  0.02564172  0.98660002    -0.73100
O247        O  0.47253908  0.02448215  0.55973207    -0.73000
O248        O  0.04329162  0.47081881  0.53910049    -0.73000
O249        O  0.04412042  0.02617080  0.55100520    -0.73000
O250        O  0.46859816  0.46999287  0.55151083    -0.73000
Ni251      Ni  0.50284643  0.00043375  0.97959320     1.25400
Ni252      Ni  0.00769243  0.49829787  0.54930054     1.25400
C253        C  0.45437509  0.46448495  0.51127649     0.89200
C254        C  0.05156130  0.03887234  0.51073443     0.89200
C255        C  0.04880014  0.46493423  0.49730754     0.89200
C256        C  0.45714190  0.03788067  0.52197525     0.89400
O257        O  0.08514408  0.06424701  0.97510682    -0.79400
O258        O  0.16543897  0.17316498  0.97681825    -0.64100
O259        O  0.14203409  0.09719644  0.99879066    -1.10700
C260        C  0.06471278  0.13495857  0.60375265     1.07500
O261        O  0.17103063  0.18279185  0.54860570    -0.77300
O262        O  0.15398782  0.14261130  0.61318892    -0.64900
Ni263      Ni  0.13027620  0.07572461  0.94968035     1.34900
C264        C  0.15960439  0.11681679  0.61575592     0.86200
O265        O  0.18964253  0.12813313  0.94250890    -0.77900
O266        O  0.17490695  0.08603334  0.92174062    -0.88100
C267        C  0.17755605  0.19303648  0.50707561     0.85800
O268        O  0.10342239  0.10282762  0.90712506    -0.66300
O269        O  0.08243949  0.15739024  0.59967517    -0.85600
C270        C  0.10065474  0.12893067  0.90332851     0.86600
C271        C  0.19468899  0.10747039  0.91996222     1.08200
H272        H  0.09354902  0.15630834  0.50533220     0.40000
O273        O  0.11526828  0.14790454  0.52228925    -1.08300
O274        O  0.14304740  0.10163150  0.58779206    -0.64900
Ni275      Ni  0.10535459  0.10948265  0.53603367     1.26300
O276        O  0.11818889  0.14347990  0.93102391    -0.65200
O277        O  0.07031838  0.11469101  0.58079318    -0.77400
C278        C  0.07868361  0.06107010  0.50663319     0.86000
O279        O  0.09354323  0.07083023  0.54270177    -0.64600
Ni280      Ni  0.12609504  0.16937538  0.57199062     1.27400
Ni281      Ni  0.15303654  0.13501596  0.98467940     1.26100
H282        H  0.16264626  0.09751582  0.50870053     0.40500
O283        O  0.42463850  0.06608785  0.56644639    -0.79400
O284        O  0.34263674  0.18052478  0.53047299    -0.64100
O285        O  0.36943638  0.10523693  0.53023236    -1.10700
C286        C  0.44319184  0.13196456  0.92012795     1.07500
O287        O  0.33728377  0.18142233  0.96251110    -0.77300
O288        O  0.35207296  0.14263379  0.90771909    -0.64900
Ni289      Ni  0.38178811  0.08219352  0.58827626     1.34900
C290        C  0.34906497  0.11665034  0.90978021     0.86200
O291        O  0.31838795  0.13422220  0.57456447    -0.77900
O292        O  0.33995582  0.09502301  0.61668175    -0.88100
C293        C  0.32919702  0.19419724  0.49267179     0.85800
O294        O  0.41228143  0.10781782  0.61686491    -0.66300
O295        O  0.42413167  0.15411563  0.91648612    -0.85600
C296        C  0.41095666  0.13391075  0.61511998     0.86600
C297        C  0.31710513  0.11507165  0.60874810     1.08200
H298        H  0.41343701  0.14886276  0.01439878     0.40000
O299        O  0.39212974  0.14169192  0.99845271    -1.08300
O300        O  0.36646424  0.09984817  0.94126294    -0.64900
Ni301      Ni  0.40200362  0.10366964  0.99378900     1.26300
O302        O  0.38964194  0.14908212  0.58567478    -0.65200
O303        O  0.43878049  0.11107754  0.95019482    -0.77400
C304        C  0.43161714  0.06048980  0.52554838     0.86000
O305        O  0.41270795  0.06540082  0.99399795    -0.64600
Ni306      Ni  0.38135595  0.16645566  0.94229635     1.27400
Ni307      Ni  0.35610719  0.14284289  0.53255460     1.26100
H308        H  0.34909789  0.09664558  0.51463042     0.40500
O309        O  0.41286326  0.43239910  0.95717791    -0.79400
O310        O  0.33401995  0.31972982  0.97087816    -0.64100
O311        O  0.35765325  0.39533121  0.98042908    -1.10700
C312        C  0.44400252  0.35890634  0.61845591     1.07500
O313        O  0.33803623  0.31634658  0.55110910    -0.77300
O314        O  0.35544891  0.35098948  0.61335962    -0.64900
Ni315      Ni  0.36836495  0.42036094  0.92731358     1.34900
C316        C  0.34700218  0.37650065  0.60755285     0.86200
O317        O  0.31374206  0.36646890  0.91657450    -0.77900
O318        O  0.32453611  0.41092497  0.89216350    -0.88100
C319        C  0.31801969  0.30836971  0.00636408     0.85800
O320        O  0.39713581  0.39574706  0.89756510    -0.66300
O321        O  0.42807515  0.33625035  0.61334269    -0.85600
C322        C  0.40370402  0.36994939  0.90330268     0.86600
C323        C  0.30731165  0.38860606  0.88864937     1.08200
H324        H  0.41448553  0.34651604  0.51550534     0.40000
O325        O  0.39266555  0.35341289  0.52756305    -1.08300
O326        O  0.36230178  0.39402193  0.57836403    -0.64900
Ni327      Ni  0.40248273  0.39062966  0.53778459     1.26300
O328        O  0.38673609  0.35300817  0.93168951    -0.65200
O329        O  0.43574944  0.38158110  0.59275418    -0.77400
C330        C  0.43020224  0.44098734  0.50655026     0.86000
O331        O  0.41405209  0.42870041  0.54107648    -0.64600
Ni332      Ni  0.38326475  0.32745361  0.57995176     1.27400
Ni333      Ni  0.34664582  0.35789164  0.97190150     1.26100
H334        H  0.33593080  0.40290877  0.99166257     0.40500
O335        O  0.18238089  0.32016500  0.56350955    -0.79400
O336        O  0.09277788  0.43098435  0.52642547    -0.64100
O337        O  0.12125880  0.35563376  0.53786909    -1.10700
C338        C  0.16480008  0.37206743  0.87974096     1.07500
O339        O  0.07057896  0.42610752  0.94603878    -0.77300
O340        O  0.06892359  0.37820480  0.90416622    -0.65300
Ni341      Ni  0.14599048  0.33852721  0.59613912     1.34900
C342        C  0.07254848  0.35212488  0.91261866     0.86200
O343        O  0.08172306  0.38878575  0.59097044    -0.77900
O344        O  0.11087155  0.35329656  0.63549295    -0.88100
C345        C  0.07252016  0.44158199  0.49121292     0.85800
O346        O  0.18002770  0.36753696  0.60624384    -0.66300
O347        O  0.13867867  0.38996057  0.87239401    -0.85600
C348        C  0.17748366  0.39334478  0.59321295     0.86600
C349        C  0.08654267  0.37249081  0.62930479     1.08200
H350        H  0.15151765  0.39860559  0.97527519     0.40000
O351        O  0.12927911  0.38859649  0.96993856    -1.08300
O352        O  0.10107649  0.34032760  0.93343336    -0.64900
Ni353      Ni  0.14187401  0.35072423  0.97272517     1.26300
O354        O  0.15046619  0.40464519  0.56767940    -0.65200
O355        O  0.17084529  0.35669039  0.91899699    -0.77400
C356        C  0.18194164  0.31150740  0.52276686     0.86000
O357        O  0.15614388  0.31293693  0.97784349    -0.64600
Ni358      Ni  0.10494155  0.40625996  0.91226273     1.27400
Ni359      Ni  0.10709177  0.39338399  0.53392073     1.26100
H360        H  0.09941820  0.34515656  0.53267632     0.40500
C361        C  0.01975507  0.14427924  0.71582562     0.03800
C362        C  0.48123197  0.14255867  0.71869956     0.03700
C363        C  0.46533956  0.14358503  0.76156921    -0.16800
C364        C  0.48725486  0.14402094  0.80377685     0.03800
C365        C  0.02611497  0.13999580  0.80167208     0.03700
C366        C  0.04179768  0.14290917  0.75816692    -0.16800
H367        H  0.07130841  0.14239292  0.75721448     0.05800
H368        H  0.43587719  0.14243444  0.76263849     0.05800
C369        C  0.03047608  0.36341715  0.74260153     0.03800
C370        C  0.49459671  0.37636657  0.73135081     0.03700
C371        C  0.47173799  0.38142051  0.76699361    -0.16800
C372        C  0.47948832  0.37024421  0.81423278     0.03800
C373        C  0.01253694  0.35547303  0.82521785     0.03700
C374        C  0.03785386  0.35249335  0.79062470    -0.16800
H375        H  0.06242464  0.34013616  0.80060171     0.05800
H376        H  0.44590486  0.39224369  0.75724262     0.05800
C377        C  0.26994239  0.37418012  0.69532430     0.03800
C378        C  0.23711153  0.38938600  0.68240028     0.03700
C379        C  0.21186059  0.39192963  0.71724712    -0.16800
C380        C  0.21997470  0.38146871  0.76544915     0.03800
C381        C  0.25483916  0.36890430  0.77825140     0.03700
C382        C  0.27767796  0.36342968  0.74278937    -0.16800
H383        H  0.30366268  0.35289000  0.75288213     0.05800
H384        H  0.18684917  0.40376228  0.70738136     0.05800
C385        C  0.23172248  0.11334709  0.72086394     0.03800
C386        C  0.26908578  0.10547711  0.72373225     0.03700
C387        C  0.29021657  0.10515524  0.76709018    -0.16800
C388        C  0.27515877  0.11372672  0.80698560     0.03800
C389        C  0.23752608  0.12006709  0.80454864     0.03700
C390        C  0.21632517  0.11996520  0.76177109    -0.16800
H391        H  0.18770851  0.12602987  0.75991316     0.05800
H392        H  0.31929854  0.10071666  0.76846050     0.05800
C393        C  0.20794045  0.41190880  0.60323629    -0.15000
C394        C  0.23462827  0.40894280  0.63831201    -0.30100
H395        H  0.20965046  0.43004895  0.57736696     0.14100
H396        H  0.25562304  0.42452099  0.63637625     0.14600
C397        C  0.19262972  0.38563535  0.80141397    -0.15000
C398        C  0.18974404  0.36812839  0.84162626    -0.30100
H399        H  0.17391130  0.40317280  0.79396720     0.14100
H400        H  0.20718878  0.34985608  0.84789823     0.14600
C401        C  0.06205771  0.37682320  0.66766054    -0.15000
C402        C  0.05784261  0.35884716  0.70691307    -0.30100
H403        H  0.04591863  0.39577516  0.66229692     0.14100
H404        H  0.07527926  0.34054848  0.71364225     0.14600
C405        C  0.04190505  0.33352565  0.90392634    -0.15000
C406        C  0.01491943  0.33620849  0.86941479    -0.30100
H407        H  0.04073768  0.31542468  0.92999667     0.14100
H408        H  0.99422420  0.32041444  0.87154257     0.14600
C409        C  0.27959356  0.38871137  0.84851743    -0.15000
C410        C  0.27199260  0.36602188  0.82731392    -0.30100
H411        H  0.26953301  0.40864478  0.83124576     0.14100
H412        H  0.28513203  0.34646816  0.84134615     0.14600
C413        C  0.31798838  0.38584663  0.63664650    -0.15000
C414        C  0.29637624  0.36743512  0.66059039    -0.30100
H415        H  0.31503715  0.40771035  0.63930130     0.14100
H416        H  0.30072424  0.34556766  0.65878412     0.14600
C417        C  0.45385069  0.37753089  0.84941538    -0.15000
C418        C  0.43237131  0.35963684  0.87469430    -0.30100
H419        H  0.44986239  0.39952594  0.85026834     0.14100
H420        H  0.43475737  0.33764723  0.87288651     0.14600
C421        C  0.47214331  0.35849742  0.65809215    -0.15000
C422        C  0.47777104  0.38036923  0.68210591    -0.30100
H423        H  0.48374325  0.33856125  0.67308742     0.14100
H424        H  0.46299377  0.39957551  0.67020204     0.14600
C425        C  0.28838575  0.09930735  0.68233415    -0.15000
C426        C  0.28912475  0.11727326  0.64280910    -0.30100
H427        H  0.30742364  0.08189856  0.68802215     0.14100
H428        H  0.27236413  0.13590318  0.63844725     0.14600
C429        C  0.32473299  0.10567106  0.87271963    -0.15000
C430        C  0.29929824  0.12206527  0.84676943    -0.30100
H431        H  0.32777242  0.08429812  0.86641116     0.14100
H432        H  0.29480496  0.14278170  0.85579062     0.14600
C433        C  0.45942489  0.13204923  0.67931073    -0.15000
C434        C  0.43463904  0.14710159  0.65005632    -0.30100
H435        H  0.46322332  0.11029604  0.67608632     0.14100
H436        H  0.43101713  0.16892532  0.65292728     0.14600
C437        C  0.46882454  0.14827032  0.84618147    -0.15000
C438        C  0.46988542  0.12975411  0.88490323    -0.30100
H439        H  0.44969350  0.16561444  0.84223286     0.14100
H440        H  0.48627769  0.11102693  0.88720982     0.14600
C441        C  0.21887888  0.12582003  0.84663169    -0.15000
C442        C  0.22334078  0.10867316  0.88698277    -0.30100
H443        H  0.19622364  0.14060762  0.84179121     0.14100
H444        H  0.24240977  0.09133902  0.88971841     0.14600
C445        C  0.18635710  0.10453688  0.65429403    -0.15000
C446        C  0.21013883  0.12107385  0.67531667    -0.30100
H447        H  0.18533294  0.08271395  0.66704402     0.14100
H448        H  0.21088907  0.14282807  0.66189444     0.14600
C449        C  0.04900634  0.12895749  0.84439753    -0.15000
C450        C  0.07605680  0.14291814  0.86439615    -0.30100
H451        H  0.04459414  0.10759157  0.85798628     0.14100
H452        H  0.08007621  0.16452632  0.85199008     0.14600
C453        C  0.03774506  0.14974273  0.67169667    -0.15000
C454        C  0.03810185  0.13170413  0.63982104    -0.30100
H455        H  0.05557109  0.16747567  0.66927812     0.14100
H456        H  0.02291559  0.11269288  0.64442673     0.14600
O457        O  0.21234044  0.72657205  0.45873677    -0.72900
O458        O  0.28373433  0.78481329  0.45780155    -0.73000
O459        O  0.28645232  0.72882687  0.45688610    -0.73000
O460        O  0.20977272  0.78214300  0.46008204    -0.73100
O461        O  0.21397172  0.76747490  0.03860627    -0.73000
O462        O  0.29391022  0.71774259  0.03149181    -0.73000
O463        O  0.28704727  0.77276002  0.03579691    -0.73000
O464        O  0.22109888  0.71344600  0.03515969    -0.73000
Ni465      Ni  0.24799668  0.75576167  0.45534735     1.25400
Ni466      Ni  0.25437903  0.74266512  0.03783542     1.25400
C467        C  0.20370547  0.71440567  0.49888638     0.89200
C468        C  0.29512926  0.78691324  0.99725968     0.89200
C469        C  0.30162728  0.71663235  0.49579968     0.89200
C470        C  0.19699744  0.77938394  0.00074846     0.89400
O471        O  0.46318884  0.97748039  0.47705747    -0.72900
O472        O  0.03528549  0.53340026  0.46610233    -0.73000
O473        O  0.03186437  0.97798561  0.46798385    -0.73000
O474        O  0.45759553  0.53306267  0.47797846    -0.73100
O475        O  0.47098717  0.51796639  0.04859049    -0.73000
O476        O  0.04962843  0.96238720  0.05639771    -0.73000
O477        O  0.04337824  0.51879245  0.04476079    -0.73000
O478        O  0.47418413  0.96182692  0.05836054    -0.73000
Ni479      Ni  0.49594639  0.50772095  0.47029886     1.25400
Ni480      Ni  0.01107988  0.98842459  0.06316731     1.25400
C481        C  0.46074040  0.95669713  0.01747049     0.89200
C482        C  0.05187754  0.53210851  0.00557541     0.89200
C483        C  0.05896516  0.95835501  0.01515416     0.89200
C484        C  0.45654024  0.53222393  0.01106717     0.89400
O485        O  0.08223003  0.57359539  0.45931394    -0.79400
O486        O  0.16192508  0.68294921  0.46642938    -0.64100
O487        O  0.13934900  0.60654371  0.48576502    -1.10700
C488        C  0.05889198  0.63077425  0.09278444     1.07500
O489        O  0.16892124  0.67780122  0.04253733    -0.77300
O490        O  0.15135803  0.63802672  0.10786025    -0.64900
Ni491      Ni  0.12752325  0.58585666  0.43510935     1.34900
C492        C  0.15437407  0.61195057  0.11432808     0.86200
O493        O  0.18517336  0.63896290  0.42843833    -0.77900
O494        O  0.17215446  0.59650175  0.40826697    -0.88100
C495        C  0.17822208  0.68543879  0.00086704     0.85800
O496        O  0.10115616  0.61365129  0.39320818    -0.66300
O497        O  0.07906624  0.65201789  0.09138263    -0.85600
C498        C  0.09617833  0.63944417  0.39276499     0.86600
C499        C  0.19116867  0.61826419  0.40637227     1.08200
H500        H  0.09486736  0.64930225  0.99654260     0.40000
O501        O  0.11529498  0.64095568  0.01647711    -1.08300
O502        O  0.13661899  0.59609203  0.08887655    -0.64900
Ni503      Ni  0.10371386  0.60291652  0.03217410     1.26300
O504        O  0.11239547  0.65347428  0.42243268    -0.65200
O505        O  0.06452113  0.61021163  0.07040123    -0.77400
C506        C  0.07981988  0.55355165  0.00407052     0.86000
O507        O  0.09111511  0.56447972  0.04069615    -0.64600
Ni508      Ni  0.12355938  0.66388410  0.06477621     1.27400
Ni509      Ni  0.14973265  0.64464643  0.47313726     1.26100
H510        H  0.16395692  0.58965049  0.01539273     0.40500
O511        O  0.42452726  0.56027893  0.05674365    -0.79400
O512        O  0.34404462  0.67690678  0.02476423    -0.64100
O513        O  0.37072275  0.60126378  0.02217038    -1.10700
C514        C  0.43711104  0.63547586  0.40784965     1.07500
O515        O  0.33493753  0.68830485  0.45301978    -0.77300
O516        O  0.34560908  0.64832778  0.39872100    -0.64900
Ni517      Ni  0.38345322  0.57808916  0.08023793     1.34900
C518        C  0.34264977  0.62233484  0.40135659     0.86200
O519        O  0.32019151  0.63018899  0.06721894    -0.77900
O520        O  0.34338332  0.59213242  0.11110566    -0.88100
C521        C  0.33064840  0.69110313  0.98739858     0.85800
O522        O  0.41604585  0.60331950  0.10621977    -0.66300
O523        O  0.41833871  0.65784928  0.40264421    -0.85600
C524        C  0.41395004  0.62930843  0.10599441     0.86600
C525        C  0.32005889  0.61185238  0.10266666     1.08200
H526        H  0.41014854  0.65480151  0.50227071     0.40000
O527        O  0.38816019  0.64782483  0.48761044    -1.08300
O528        O  0.36029790  0.60572596  0.43275462    -0.64900
Ni529      Ni  0.39640038  0.60959801  0.48424588     1.26300
O530        O  0.39150217  0.64457841  0.07831190    -0.65200
O531        O  0.43280393  0.61555435  0.43984831    -0.77400
C532        C  0.43201671  0.55559090  0.01546852     0.86000
O533        O  0.40530588  0.57123257  0.48561123    -0.64600
Ni534      Ni  0.37719511  0.67187577  0.43067454     1.27400
Ni535      Ni  0.35753519  0.63899877  0.02529555     1.26100
H536        H  0.35030089  0.59274142  0.00664272     0.40500
O537        O  0.42803043  0.93157249  0.47165699    -0.79400
O538        O  0.33751385  0.82751549  0.46875508    -0.64100
O539        O  0.36670764  0.90090734  0.48794037    -1.10700
C540        C  0.43117832  0.85135503  0.12430496     1.07500
O541        O  0.32221908  0.81878353  0.04334792    -0.77300
O542        O  0.33945417  0.85281586  0.10809626    -0.64900
Ni543      Ni  0.38246901  0.92614818  0.43815476     1.34900
C544        C  0.34059434  0.87888328  0.10642702     0.86200
O545        O  0.32375430  0.87720663  0.41950540    -0.77900
O546        O  0.33770558  0.92202576  0.40153929    -0.88100
C547        C  0.31995920  0.81547642  0.50224173     0.85800
O548        O  0.40733895  0.90108550  0.40415846    -0.66300
O549        O  0.40910995  0.83145012  0.12081731    -0.85600
C550        C  0.41186040  0.87506858  0.40886599     0.86600
C551        C  0.31952758  0.90059397  0.39456777     1.08200
H552        H  0.40589878  0.83961854  0.02055717     0.40000
O553        O  0.38483403  0.84927905  0.02942460    -1.08300
O554        O  0.36189370  0.89361216  0.08041369    -0.64900
Ni555      Ni  0.40046811  0.88539820  0.03988289     1.26300
O556        O  0.39403107  0.85879626  0.43709341    -0.65200
O557        O  0.43102576  0.87316213  0.09497379    -0.77400
C558        C  0.43585391  0.93368660  0.01136278     0.86000
O559        O  0.41803201  0.92207454  0.04475055    -0.64600
Ni560      Ni  0.36621329  0.82601829  0.08009343     1.27400
Ni561      Ni  0.35328044  0.86473460  0.47526654     1.26100
H562        H  0.34531431  0.90931117  0.49858628     0.40500
O563        O  0.15739583  0.79956900  0.04807573    -0.79400
O564        O  0.10216493  0.92224802  0.04364088    -0.64100
O565        O  0.11203069  0.84629008  0.02603172    -1.10700
C566        C  0.15714911  0.88593255  0.37661355     1.07500
O567        O  0.06355218  0.93081008  0.45665896    -0.77300
O568        O  0.06146158  0.88334971  0.41434612    -0.65300
Ni569      Ni  0.12135677  0.81834293  0.07903794     1.34900
C570        C  0.06963270  0.85806502  0.41388018     0.86200
O571        O  0.07461194  0.87716590  0.08611285    -0.77900
O572        O  0.08749937  0.83394863  0.11881997    -0.88100
C573        C  0.08730181  0.93796378  0.00884578     0.85800
O574        O  0.16050745  0.83692049  0.10613171    -0.66300
O575        O  0.12649655  0.89880566  0.37367418    -0.85600
C576        C  0.16780322  0.86211441  0.10669070     0.86600
C577        C  0.07152250  0.85724221  0.11863014     1.08200
H578        H  0.14523095  0.90703004  0.47750667     0.40000
O579        O  0.12424574  0.89571503  0.47169433    -1.08300
O580        O  0.10178903  0.84867205  0.42442323    -0.64900
Ni581      Ni  0.14028775  0.85918493  0.46781382     1.26300
O582        O  0.14866884  0.88200510  0.08417600    -0.65200
O583        O  0.16934556  0.87078470  0.41444410    -0.77400
C584        C  0.16675985  0.79848181  0.00615770     0.86000
O585        O  0.15838197  0.82249804  0.46802473    -0.64600
Ni586      Ni  0.09555231  0.91303378  0.41792738     1.27400
Ni587      Ni  0.10794177  0.88395631  0.03720756     1.26100
H588        H  0.08876480  0.84158480  0.01136961     0.40500
C589        C  0.01190783  0.64850637  0.19652928     0.03800
C590        C  0.48255158  0.63758985  0.21095806     0.03700
C591        C  0.46549943  0.64162143  0.25204591    -0.16800
C592        C  0.48627239  0.64420217  0.29440309     0.03800
C593        C  0.03302419  0.65104008  0.27901837     0.03700
C594        C  0.03989279  0.65237413  0.23107111    -0.16800
H595        H  0.06773433  0.65491698  0.22077009     0.05800
H596        H  0.43592006  0.64129928  0.25177868     0.05800
C597        C  0.02493643  0.85415483  0.23926748     0.03800
C598        C  0.48946208  0.87001871  0.23067521     0.03700
C599        C  0.47158165  0.87907796  0.26805517    -0.16800
C600        C  0.48283531  0.87011102  0.31528314     0.03800
C601        C  0.01528175  0.85241725  0.32453816     0.03700
C602        C  0.03574968  0.84509447  0.28726060    -0.16800
H603        H  0.05886828  0.83101764  0.29552059     0.05800
H604        H  0.44649198  0.89114225  0.26030720     0.05800
C605        C  0.26800285  0.88744805  0.19659111     0.03800
C606        C  0.22979148  0.89181884  0.19562879     0.03700
C607        C  0.21188211  0.89116584  0.23800573    -0.16800
C608        C  0.23122071  0.88615774  0.28253103     0.03800
C609        C  0.26964655  0.88395393  0.28292040     0.03700
C610        C  0.28762562  0.88444995  0.24073163    -0.16800
H611        H  0.31698817  0.88118859  0.24255266     0.05800
H612        H  0.18234645  0.89225150  0.23550853     0.05800
C613        C  0.23156080  0.61053142  0.21057624     0.03800
C614        C  0.26943107  0.60427791  0.21564529     0.03700
C615        C  0.28933601  0.60689403  0.25876905    -0.16800
C616        C  0.27263912  0.61726598  0.29593322     0.03800
C617        C  0.23468304  0.62271208  0.29135427     0.03700
C618        C  0.21454675  0.61900267  0.24905266    -0.16800
H619        H  0.18556074  0.62401489  0.24525975     0.05800
H620        H  0.31864982  0.60327207  0.26178716     0.05800
C621        C  0.19976806  0.86740515  0.13707876    -0.15000
C622        C  0.20633778  0.89179129  0.15203993    -0.30100
H623        H  0.21572383  0.84944905  0.15334784     0.14100
H624        H  0.18853311  0.90946175  0.14006243     0.14600
C625        C  0.21188255  0.88097993  0.32818125    -0.15000
C626        C  0.17740125  0.88960098  0.33253188    -0.30100
H627        H  0.22661203  0.87011977  0.35932602     0.14100
H628        H  0.16299910  0.90167014  0.30246011     0.14600
C629        C  0.04864277  0.86255420  0.15803577    -0.15000
C630        C  0.04717250  0.84628001  0.19999231    -0.30100
H631        H  0.03437360  0.88232570  0.15327383     0.14100
H632        H  0.06410730  0.82772262  0.20673320     0.14600
C633        C  0.04120467  0.83732225  0.40836913    -0.15000
C634        C  0.01820790  0.83479466  0.37050778    -0.30100
H635        H  0.04051306  0.82104619  0.43784077     0.14100
H636        H  0.99979220  0.81743369  0.37334176     0.14600
C637        C  0.29369074  0.90236647  0.35352100    -0.15000
C638        C  0.29210964  0.88143618  0.32726990    -0.30100
H639        H  0.27875468  0.92154755  0.34188006     0.14100
H640        H  0.31004582  0.86347013  0.33599310     0.14600
C641        C  0.31753969  0.89216310  0.13890732    -0.15000
C642        C  0.28652806  0.88037774  0.15413929    -0.30100
H643        H  0.32763979  0.91047424  0.15343997     0.14100
H644        H  0.27601068  0.86291499  0.13745481     0.14600
C645        C  0.46081448  0.87974146  0.35242805    -0.15000
C646        C  0.43863903  0.86334578  0.37919200    -0.30100
H647        H  0.45920562  0.90193375  0.35280985     0.14100
H648        H  0.43895792  0.84124526  0.37757354     0.14600
C649        C  0.45743072  0.84946972  0.16576359    -0.15000
C650        C  0.46876315  0.87228749  0.18423047    -0.30100
H651        H  0.46458060  0.82922141  0.18444465     0.14100
H652        H  0.45859948  0.89251954  0.16859439     0.14600
C653        C  0.29016943  0.59704330  0.17614759    -0.15000
C654        C  0.29267185  0.61492818  0.13698346    -0.30100
H655        H  0.30815887  0.57903489  0.18274196     0.14100
H656        H  0.27714825  0.63414180  0.13255342     0.14600
C657        C  0.31855838  0.61088501  0.36488976    -0.15000
C658        C  0.29568355  0.62729068  0.33489114    -0.30100
H659        H  0.32009694  0.58894628  0.36181649     0.14100
H660        H  0.29247294  0.64889286  0.33974531     0.14600
C661        C  0.46083621  0.62677813  0.17198779    -0.15000
C662        C  0.43786152  0.64225963  0.14082123    -0.30100
H663        H  0.46310581  0.60470617  0.17063490     0.14100
H664        H  0.43552991  0.66431711  0.14243527     0.14600
C665        C  0.46666084  0.65026963  0.33517710    -0.15000
C666        C  0.46379237  0.63161552  0.37310765    -0.30100
H667        H  0.45018935  0.66909075  0.33058254     0.14100
H668        H  0.47785701  0.61180968  0.37561920     0.14600
C669        C  0.21449025  0.63142959  0.33035487    -0.15000
C670        C  0.22068578  0.61919110  0.37481856    -0.30100
H671        H  0.18971680  0.64383741  0.32114097     0.14100
H672        H  0.24222135  0.60370725  0.38333501     0.14600
C673        C  0.17991035  0.60024956  0.15410406    -0.15000
C674        C  0.21063874  0.61398054  0.16394127    -0.30100
H675        H  0.17239306  0.58211844  0.17713996     0.14100
H676        H  0.21743767  0.63170834  0.13954412     0.14600
C677        C  0.06441582  0.64402467  0.31409229    -0.15000
C678        C  0.06937019  0.65336933  0.35650438    -0.30100
H679        H  0.08366695  0.62874036  0.30511389     0.14100
H680        H  0.05286533  0.67033136  0.36527643     0.14600
C681        C  0.02168867  0.65140163  0.14711360    -0.15000
C682        C  0.02949722  0.62924601  0.12574249    -0.30100
H683        H  0.03240950  0.67138195  0.13417406     0.14100
H684        H  0.01980246  0.60904145  0.13930300     0.14600
O685        O  0.21298441  0.72034986  0.95624828    -0.72900
O686        O  0.28165708  0.78090014  0.95688804    -0.73000
O687        O  0.28691643  0.72507055  0.95252379    -0.73000
O688        O  0.20715392  0.77571574  0.95971548    -0.73100
O689        O  0.21585268  0.77505712  0.53918458    -0.73000
O690        O  0.29239721  0.72240600  0.53600801    -0.73000
O691        O  0.28859573  0.77765708  0.53687914    -0.73000
O692        O  0.21912232  0.72054561  0.53780605    -0.73000
Ni693      Ni  0.24707740  0.75080514  0.95331131     1.25400
Ni694      Ni  0.25430728  0.74869397  0.54009722     1.25400
C695        C  0.20547946  0.70738408  0.99637898     0.89200
C696        C  0.29687891  0.79125547  0.49790032     0.89200
C697        C  0.30284180  0.71257334  0.99069602     0.89200
C698        C  0.20019678  0.78715159  0.50069758     0.89400
O699        O  0.46935901  0.97109909  0.97951776    -0.72900
O700        O  0.03609970  0.52731055  0.96590947    -0.73000
O701        O  0.04282095  0.97121301  0.97754757    -0.73000
O702        O  0.46382392  0.52686940  0.96977703    -0.73100
O703        O  0.46520538  0.52524134  0.55693261    -0.73000
O704        O  0.04203682  0.96995398  0.54659453    -0.73000
O705        O  0.04444518  0.52652600  0.54495215    -0.73000
O706        O  0.47167320  0.96857276  0.55577468    -0.73000
Ni707      Ni  0.49762834  0.49813960  0.96132442     1.25400
Ni708      Ni  0.00670301  0.99823397  0.55546784     1.25400
C709        C  0.45623512  0.96329295  0.51611246     0.89200
C710        C  0.05154458  0.53935748  0.50470936     0.89200
C711        C  0.04719771  0.96387868  0.50484417     0.89200
C712        C  0.44871431  0.53755884  0.51908758     0.89400
O713        O  0.09016799  0.56228727  0.96344396    -0.79400
O714        O  0.16597677  0.67359791  0.96590128    -0.64100
O715        O  0.14362564  0.59734365  0.99455579    -1.10700
C716        C  0.06160255  0.63464956  0.59868840     1.07500
O717        O  0.16734256  0.68410706  0.54416750    -0.77300
O718        O  0.14998802  0.64349013  0.60846650    -0.64900
Ni719      Ni  0.13789059  0.57366655  0.94683210     1.34900
C720        C  0.15744938  0.61796447  0.61025250     0.86200
O721        O  0.19221288  0.62794350  0.93795026    -0.77900
O722        O  0.18517141  0.58330891  0.92650351    -0.88100
C723        C  0.17573856  0.69301876  0.50257499     0.85800
O724        O  0.11465722  0.59933212  0.89802956    -0.66300
O725        O  0.07807729  0.65765470  0.59424187    -0.85600
C726        C  0.10759879  0.62504771  0.89364237     0.86600
C727        C  0.20139986  0.60628761  0.92052178     1.08200
H728        H  0.09150849  0.65626635  0.49975649     0.40000
O729        O  0.11329051  0.64823553  0.51710410    -1.08300
O730        O  0.14241144  0.60256528  0.58148428    -0.64900
Ni731      Ni  0.10399631  0.60982742  0.53072032     1.26300
O732        O  0.12027495  0.64100948  0.92267723    -0.65200
O733        O  0.06895711  0.61445412  0.57623225    -0.77400
C734        C  0.07772859  0.56197846  0.50083109     0.86000
O735        O  0.09310304  0.57117864  0.53708895    -0.64600
Ni736      Ni  0.12219326  0.67004915  0.56685642     1.27400
Ni737      Ni  0.15433557  0.63522684  0.97757926     1.26100
H738        H  0.16100832  0.59775372  0.50225601     0.40500
O739        O  0.41249328  0.56319384  0.56379837    -0.79400
O740        O  0.34349775  0.68171419  0.53150063    -0.64100
O741        O  0.35987463  0.60473611  0.52869917    -1.10700
C742        C  0.44748192  0.63876424  0.90380229     1.07500
O743        O  0.33882894  0.68602975  0.94664593    -0.77300
O744        O  0.35483929  0.64628579  0.89340834    -0.64900
Ni745      Ni  0.36935626  0.57956462  0.58464630     1.34900
C746        C  0.35345001  0.62016826  0.89580651     0.86200
O747        O  0.31655014  0.63704001  0.57900582    -0.77900
O748        O  0.32717435  0.59311579  0.61100087    -0.88100
C749        C  0.32884454  0.69484127  0.49365753     0.85800
O750        O  0.40082912  0.60265773  0.61756733    -0.66300
O751        O  0.42651560  0.65993009  0.89974858    -0.85600
C752        C  0.40763244  0.62820875  0.61386294     0.86600
C753        C  0.30959631  0.61595484  0.60757248     1.08200
H754        H  0.41546881  0.65471823  0.99932216     0.40000
O755        O  0.39502060  0.64675574  0.98284848    -1.08300
O756        O  0.37247531  0.60400724  0.92649336    -0.64900
Ni757      Ni  0.40769711  0.60903490  0.97842407     1.26300
O758        O  0.39069374  0.64606345  0.58354541    -0.65200
O759        O  0.44432646  0.61779034  0.93429650    -0.77400
C760        C  0.42009041  0.55795917  0.52291581     0.86000
O761        O  0.42041029  0.57108188  0.97845294    -0.64600
Ni762      Ni  0.38334848  0.67129475  0.92632125     1.27400
Ni763      Ni  0.35240453  0.64305369  0.53332435     1.26100
H764        H  0.33792681  0.59835819  0.51297398     0.40500
O765        O  0.43344314  0.92522172  0.97079853    -0.79400
O766        O  0.33597027  0.82313166  0.96833768    -0.64100
O767        O  0.36942009  0.89608188  0.98414903    -1.10700
C768        C  0.43099998  0.85304003  0.62245469     1.07500
O769        O  0.32055994  0.82499631  0.54176981    -0.77300
O770        O  0.33802245  0.85679928  0.60855886    -0.64900
Ni771      Ni  0.38887308  0.91947603  0.93434162     1.34900
C772        C  0.33940363  0.88277992  0.60778369     0.86200
O773        O  0.32383768  0.87300241  0.91689454    -0.77900
O774        O  0.34525412  0.91559937  0.89492977    -0.88100
C775        C  0.31941342  0.81065289  0.00245839     0.85800
O776        O  0.41442614  0.89264804  0.90458064    -0.66300
O777        O  0.40737603  0.83421286  0.61917467    -0.85600
C778        C  0.41457563  0.86648623  0.90774072     0.86600
C779        C  0.32302352  0.89600499  0.89009460     1.08200
H780        H  0.40502758  0.84428631  0.52199475     0.40000
O781        O  0.38393550  0.85394376  0.53081044    -1.08300
O782        O  0.36173354  0.89756822  0.58376087    -0.64900
Ni783      Ni  0.39944385  0.88983790  0.54205546     1.26300
O784        O  0.39343119  0.85173442  0.93401713    -0.65200
O785        O  0.43097380  0.87604508  0.59574868    -0.77400
C786        C  0.43194514  0.93969631  0.51228793     0.86000
O787        O  0.41713292  0.92671331  0.54739387    -0.64600
Ni788      Ni  0.36424587  0.83027562  0.57945846     1.27400
Ni789      Ni  0.35386632  0.86002820  0.97313127     1.26100
H790        H  0.34839524  0.90573806  0.99316935     0.40500
O791        O  0.16161506  0.80934230  0.54604362    -0.79400
O792        O  0.08893969  0.92629475  0.53067008    -0.64100
O793        O  0.10845697  0.85041375  0.51975102    -1.10700
C794        C  0.18445802  0.88155660  0.89800571     1.07500
O795        O  0.09400458  0.93548845  0.96642369    -0.77300
O796        O  0.09500809  0.89897829  0.90628751    -0.65300
Ni797      Ni  0.12091144  0.82423051  0.57385343     1.34900
C798        C  0.08708717  0.87379741  0.90650678     0.86200
O799        O  0.07292329  0.88051765  0.58513466    -0.77900
O800        O  0.08162330  0.83565708  0.60952079    -0.88100
C801        C  0.06862913  0.93937810  0.49728684     0.85800
O802        O  0.15412712  0.84737225  0.60291379    -0.66300
O803        O  0.16847385  0.90457728  0.89986626    -0.85600
C804        C  0.16276572  0.87254238  0.59610973     0.86600
C805        C  0.06740972  0.85903267  0.61360242     1.08200
H806        H  0.16528751  0.89501441  0.00330601     0.40000
O807        O  0.14203551  0.89022300  0.98870767    -1.08300
O808        O  0.10547791  0.85400279  0.93046316    -0.64900
Ni809      Ni  0.14646606  0.85271581  0.97719438     1.26300
O810        O  0.14482962  0.89080045  0.56720521    -0.65200
O811        O  0.17990837  0.86022479  0.92754163    -0.77400
C812        C  0.17139974  0.80736979  0.50462436     0.86000
O813        O  0.15303936  0.81455479  0.97102785    -0.64600
Ni814      Ni  0.13203329  0.91838679  0.93677577     1.27400
Ni815      Ni  0.09914225  0.88803248  0.52849274     1.26100
H816        H  0.08564077  0.84374515  0.50690610     0.40500
C817        C  0.01609249  0.63954167  0.71283075     0.03800
C818        C  0.47279225  0.66119359  0.70220819     0.03700
C819        C  0.46418725  0.66369770  0.74868653    -0.16800
C820        C  0.48986767  0.65640461  0.78746707     0.03800
C821        C  0.02776333  0.62957595  0.79871243     0.03700
C822        C  0.03956582  0.63957478  0.75412775    -0.16800
H823        H  0.06791732  0.64521520  0.75101135     0.05800
H824        H  0.43652501  0.66948254  0.75510573     0.05800
C825        C  0.02102862  0.84719120  0.73466614     0.03800
C826        C  0.49060691  0.86045831  0.73096757     0.03700
C827        C  0.47157639  0.86451372  0.77083612    -0.16800
C828        C  0.48662237  0.85656574  0.81678593     0.03800
C829        C  0.02051074  0.84362674  0.82137212     0.03700
C830        C  0.03709719  0.83819335  0.78006200    -0.16800
H831        H  0.06452424  0.82942959  0.78328060     0.05800
H832        H  0.44491357  0.87460213  0.76593965     0.05800
C833        C  0.26327533  0.89116123  0.69150983     0.03800
C834        C  0.22607458  0.89992044  0.68928522     0.03700
C835        C  0.20965841  0.90329731  0.73166448    -0.16800
C836        C  0.22807578  0.89601252  0.77642857     0.03800
C837        C  0.26482495  0.88687289  0.77828749     0.03700
C838        C  0.28199218  0.88491598  0.73619431    -0.16800
H839        H  0.31019772  0.87778998  0.73833578     0.05800
H840        H  0.18121151  0.90977713  0.72986525     0.05800
C841        C  0.22450302  0.61439696  0.72131299     0.03800
C842        C  0.26061219  0.60457483  0.71937824     0.03700
C843        C  0.28566825  0.60448911  0.75920556    -0.16800
C844        C  0.27518366  0.61444262  0.80046653     0.03800
C845        C  0.23842586  0.62161026  0.80355791     0.03700
C846        C  0.21362187  0.62194766  0.76410779    -0.16800
H847        H  0.18571244  0.62892044  0.76638316     0.05800
H848        H  0.31418750  0.59941279  0.75628230     0.05800
C849        C  0.19601977  0.87879958  0.62450318    -0.15000
C850        C  0.20143679  0.90173631  0.64523695    -0.30100
H851        H  0.21305331  0.86086062  0.63759343     0.14100
H852        H  0.18158598  0.91856686  0.63789001     0.14600
C853        C  0.20758080  0.89842581  0.81962353    -0.15000
C854        C  0.20862750  0.87935491  0.85847697    -0.30100
H855        H  0.18829397  0.91559125  0.81731373     0.14100
H856        H  0.22528508  0.86080271  0.85962984     0.14600
C857        C  0.04372931  0.86205856  0.65353686    -0.15000
C858        C  0.04209517  0.84306937  0.69218496    -0.30100
H859        H  0.02930951  0.88161439  0.65259087     0.14100
H860        H  0.05925352  0.82466623  0.69474227     0.14600
C861        C  0.05486124  0.86858943  0.87597865    -0.15000
C862        C  0.04510592  0.84383426  0.86431707    -0.30100
H863        H  0.04045959  0.88682467  0.85787247     0.14100
H864        H  0.06107808  0.82549812  0.87825922     0.14600
C865        C  0.29546878  0.90051696  0.85025129    -0.15000
C866        C  0.28708623  0.88054976  0.82326271    -0.30100
H867        H  0.28521424  0.92139594  0.83922442     0.14100
H868        H  0.30048360  0.86044319  0.83094897     0.14600
C869        C  0.31499972  0.89592019  0.63852287    -0.15000
C870        C  0.28244264  0.88495057  0.64926179    -0.30100
H871        H  0.32514659  0.91335868  0.65565834     0.14100
H872        H  0.27233298  0.86815703  0.63055201     0.14600
C873        C  0.46746824  0.86637480  0.85672945    -0.15000
C874        C  0.43953141  0.85283017  0.87764058    -0.30100
H875        H  0.47330621  0.88723728  0.86430642     0.14100
H876        H  0.43353057  0.83196874  0.87016270     0.14600
C877        C  0.45917434  0.84763850  0.66066409    -0.15000
C878        C  0.47109856  0.86782864  0.68491742    -0.30100
H879        H  0.46620429  0.82628182  0.67377584     0.14100
H880        H  0.46087408  0.88885132  0.67548533     0.14600
C881        C  0.27543230  0.59831749  0.67527678    -0.15000
C882        C  0.28119949  0.61871772  0.64078303    -0.30100
H883        H  0.28949313  0.57857008  0.67649279     0.14100
H884        H  0.26901544  0.63900589  0.64154571     0.14600
C885        C  0.32839619  0.60817012  0.86084798    -0.15000
C886        C  0.30269512  0.62415075  0.83490299    -0.30100
H887        H  0.33023514  0.58631263  0.85726693     0.14100
H888        H  0.29957933  0.64553215  0.84124754     0.14600
C889        C  0.44274308  0.65974064  0.66450682    -0.15000
C890        C  0.43839868  0.63578123  0.64591377    -0.30100
H891        H  0.42209179  0.67599220  0.65726174     0.14100
H892        H  0.45766114  0.61905345  0.65851553     0.14600
C893        C  0.47766906  0.65941167  0.83475592    -0.15000
C894        C  0.47474803  0.63783800  0.86823281    -0.30100
H895        H  0.46331992  0.67861984  0.83764354     0.14100
H896        H  0.48752230  0.61812861  0.86466005     0.14600
C897        C  0.22439104  0.62727181  0.84855495    -0.15000
C898        C  0.22947761  0.60844152  0.88674357    -0.30100
H899        H  0.20288953  0.64286574  0.84722883     0.14100
H900        H  0.24720930  0.59062218  0.88570308     0.14600
C901        C  0.18498364  0.60630549  0.64831377    -0.15000
C902        C  0.19966898  0.62293396  0.67899148    -0.30100
H903        H  0.19241365  0.58455517  0.65204207     0.14100
H904        H  0.19074746  0.64437685  0.67584540     0.14600
C905        C  0.05422798  0.62140614  0.83964876    -0.15000
C906        C  0.08263315  0.63649321  0.85314695    -0.30100
H907        H  0.04939160  0.60176833  0.86049950     0.14100
H908        H  0.08642959  0.65725297  0.83596661     0.14600
C909        C  0.03183929  0.64786027  0.66715197    -0.15000
C910        C  0.03435671  0.63036452  0.63444196    -0.30100
H911        H  0.04804510  0.66646234  0.66498579     0.14100
H912        H  0.02073588  0.61061922  0.63869074     0.14600
O913        O  0.70969518  0.23082940  0.46506989    -0.72900
O914        O  0.78381870  0.28724132  0.46560186    -0.73000
O915        O  0.78374095  0.23191324  0.46066604    -0.73000
O916        O  0.70943942  0.28678154  0.47212555    -0.73100
O917        O  0.72160970  0.26786345  0.05103086    -0.73000
O918        O  0.79781541  0.21445956  0.04785094    -0.73000
O919        O  0.79473530  0.27013873  0.04826360    -0.73000
O920        O  0.72442001  0.21337459  0.04934976    -0.73000
Ni921      Ni  0.74625258  0.25953045  0.46285672     1.25400
Ni922      Ni  0.76004946  0.24125661  0.05179271     1.25400
C923        C  0.70210152  0.21748833  0.50474902     0.89200
C924        C  0.80257870  0.28370353  0.00899994     0.89200
C925        C  0.79928501  0.21877702  0.49863117     0.89200
C926        C  0.70515717  0.27926744  0.01252326     0.89400
O927        O  0.96126552  0.47958729  0.46975878    -0.72900
O928        O  0.53675886  0.03191204  0.47426119    -0.73000
O929        O  0.53469964  0.48190749  0.46794832    -0.73000
O930        O  0.96228927  0.03476333  0.47877230    -0.73100
O931        O  0.97240469  0.01510340  0.06410320    -0.73000
O932        O  0.54116118  0.46054486  0.03627079    -0.73000
O933        O  0.54442283  0.02099121  0.06329246    -0.73000
O934        O  0.96703041  0.46494861  0.04130999    -0.73000
Ni935      Ni  0.99706485  0.00666201  0.47112664     1.25400
Ni936      Ni  0.50625702  0.48896961  0.04564265     1.25400
C937        C  0.95093501  0.46123292  0.00123395     0.89200
C938        C  0.55194738  0.03467613  0.02379022     0.89200
C939        C  0.54745048  0.45493337  0.99456702     0.89200
C940        C  0.95672919  0.02788790  0.02599268     0.89400
O941        O  0.58270415  0.07292010  0.46720004    -0.79400
O942        O  0.66244343  0.18380663  0.47190691    -0.64100
O943        O  0.63979952  0.10666998  0.49292475    -1.10700
C944        C  0.55932979  0.13552824  0.10388861     1.07500
O945        O  0.66860021  0.18018807  0.05423830    -0.77300
O946        O  0.64557690  0.14373211  0.12053116    -0.64900
Ni947      Ni  0.62805343  0.08534182  0.44306160     1.34900
C948        C  0.65460345  0.11841464  0.12467501     0.86200
O949        O  0.68493158  0.13892352  0.43436390    -0.77900
O950        O  0.67293838  0.09580436  0.41652027    -0.88100
C951        C  0.67991293  0.18701561  0.01342236     0.85800
O952        O  0.60111809  0.11276272  0.40062266    -0.66300
O953        O  0.57471805  0.15875103  0.09503268    -0.85600
C954        C  0.59539118  0.13854588  0.39956247     0.86600
C955        C  0.69158017  0.11776235  0.41379105     1.08200
H956        H  0.59393084  0.15166999  0.00618936     0.40000
O957        O  0.61484960  0.14430959  0.02624618    -1.08300
O958        O  0.64167889  0.10152688  0.09703413    -0.64900
Ni959      Ni  0.60450011  0.10644014  0.04457327     1.26300
O960        O  0.61194113  0.15306253  0.42850527    -0.65200
O961        O  0.56876368  0.11358510  0.08759257    -0.77400
C962        C  0.57793832  0.05756331  0.02017371     0.86000
O963        O  0.59266047  0.06785377  0.05577021    -0.64600
Ni964      Ni  0.62123993  0.16870894  0.07247962     1.27400
Ni965      Ni  0.65007135  0.14496529  0.47919296     1.26100
H966        H  0.66177253  0.09158128  0.02001909     0.40500
O967        O  0.92104020  0.05433570  0.07025820    -0.79400
O968        O  0.84631704  0.17129425  0.04284166    -0.64100
O969        O  0.86690599  0.09493404  0.03536364    -1.10700
C970        C  0.94561043  0.14521835  0.41384285     1.07500
O971        O  0.83788413  0.19400187  0.45534053    -0.77300
O972        O  0.85396903  0.15545415  0.40150613    -0.64900
Ni973      Ni  0.87633240  0.06883430  0.09026124     1.34900
C974        C  0.85029875  0.12955308  0.40340184     0.86200
O975        O  0.82142450  0.12461651  0.08665677    -0.77900
O976        O  0.83245487  0.08012366  0.11573639    -0.88100
C977        C  0.83314296  0.18580586  0.00537241     0.85800
O978        O  0.90533394  0.09216210  0.12632911    -0.66300
O979        O  0.92642777  0.16731314  0.41070997    -0.85600
C980        C  0.91069782  0.11791414  0.12432957     0.86600
C981        C  0.81489161  0.10281125  0.11379507     1.08200
H982        H  0.91216206  0.16049984  0.51003656     0.40000
O983        O  0.89170544  0.15329994  0.49242016    -1.08300
O984        O  0.86777467  0.11221933  0.43410811    -0.64900
Ni985      Ni  0.90352976  0.11560113  0.48673476     1.26300
O986        O  0.89405597  0.13572806  0.09375384    -0.65200
O987        O  0.94044013  0.12404671  0.44305668    -0.77400
C988        C  0.92907502  0.04933053  0.02941505     0.86000
O989        O  0.91567033  0.07748618  0.48642495    -0.64600
Ni990      Ni  0.88273684  0.17902231  0.43657966     1.27400
Ni991      Ni  0.85727823  0.13281560  0.04209748     1.26100
H992        H  0.84568924  0.08833656  0.01833787     0.40500
O993        O  0.92350209  0.43538852  0.46511973    -0.79400
O994        O  0.84211572  0.32563525  0.47295370    -0.64100
O995        O  0.86701793  0.40042535  0.48569791    -1.10700
C996        C  0.93259115  0.36145164  0.12215306     1.07500
O997        O  0.82703785  0.31793678  0.05145137    -0.77300
O998        O  0.83877955  0.35640969  0.10949744    -0.64900
Ni999      Ni  0.87851404  0.42615353  0.43428919     1.34900
C1000       C  0.83644081  0.38255611  0.10487268     0.86200
O1001       O  0.82108898  0.37406156  0.42250045    -0.77900
O1002       O  0.83403534  0.41863019  0.39993310    -0.88100
C1003       C  0.82837777  0.31263664  0.50904771     0.85800
O1004       O  0.90595063  0.40231829  0.40116215    -0.66300
O1005       O  0.91155075  0.34072787  0.12264327    -0.85600
C1006       C  0.91141710  0.37644852  0.40453269     0.86600
C1007       C  0.81524738  0.39708766  0.39634705     1.08200
H1008       H  0.90616005  0.34454291  0.02268980     0.40000
O1009       O  0.88414046  0.35305880  0.03138287    -1.08300
O1010       O  0.85675623  0.39788720  0.07831359    -0.64900
Ni1011     Ni  0.89493803  0.39069859  0.03636176     1.26300
O1012       O  0.89405010  0.35925090  0.43196302    -0.65200
O1013       O  0.92948757  0.38254155  0.09072458    -0.77400
C1014       C  0.92268101  0.44029879  0.99766438     0.86000
O1015       O  0.90823757  0.42870353  0.03419485    -0.64600
Ni1016     Ni  0.86946655  0.33041135  0.08515740     1.27400
Ni1017     Ni  0.85600485  0.36351548  0.47559876     1.26100
H1018       H  0.84540381  0.40789688  0.49739307     0.40500
O1019       O  0.66730444  0.30355865  0.05704692    -0.79400
O1020       O  0.59114643  0.41956179  0.02337834    -0.64100
O1021       O  0.61145726  0.34273079  0.02555258    -1.10700
C1022       C  0.67829910  0.39002488  0.39562749     1.07500
O1023       O  0.58602440  0.44465222  0.45859464    -0.77300
O1024       O  0.59040164  0.40345748  0.40767454    -0.65300
Ni1025     Ni  0.62581156  0.31946763  0.08271145     1.34900
C1026       C  0.58271287  0.37821677  0.41661321     0.86200
O1027       O  0.57471917  0.37616064  0.08311564    -0.77900
O1028       O  0.58627976  0.33272550  0.11606707    -0.88100
C1029       C  0.57160964  0.43152091  0.98814730     0.85800
O1030       O  0.65850922  0.34467821  0.10718243    -0.66300
O1031       O  0.66273474  0.41341589  0.39553376    -0.85600
C1032       C  0.66593507  0.36987112  0.09691490     0.86600
C1033       C  0.57035375  0.35610539  0.11508756     1.08200
H1034       H  0.66302552  0.41046048  0.49808996     0.40000
O1035       O  0.63977724  0.40348722  0.48721439    -1.08300
O1036       O  0.60208833  0.36084028  0.44542165    -0.64900
Ni1037     Ni  0.64754613  0.36505695  0.48393664     1.26300
O1038       O  0.64690784  0.38651521  0.06640947    -0.65200
O1039       O  0.67440725  0.36988621  0.42762757    -0.77400
C1040       C  0.67500359  0.29869963  0.01593153     0.86000
O1041       O  0.65724124  0.32650167  0.48675108    -0.64600
Ni1042     Ni  0.62531936  0.42751451  0.43095964     1.27400
Ni1043     Ni  0.60209600  0.38109467  0.02740330     1.26100
H1044       H  0.58864405  0.33518033  0.01442206     0.40500
C1045       C  0.50787708  0.15359675  0.20451798     0.03800
C1046       C  0.97189927  0.15455025  0.21246295     0.03700
C1047       C  0.96312350  0.16094920  0.25709115    -0.16800
C1048       C  0.98889398  0.15707882  0.29662422     0.03800
C1049       C  0.52614133  0.15003580  0.28915759     0.03700
C1050       C  0.53463888  0.14875345  0.24229052    -0.16800
H1051       H  0.56237235  0.14363621  0.23504631     0.05800
H1052       H  0.93527768  0.16705658  0.26193634     0.05800
C1053       C  0.52236933  0.35016177  0.23418915     0.03800
C1054       C  0.99369991  0.37812420  0.22888899     0.03700
C1055       C  0.97515187  0.38589197  0.26690498    -0.16800
C1056       C  0.98603643  0.37610471  0.31412606     0.03800
C1057       C  0.52209250  0.35105676  0.32076160     0.03700
C1058       C  0.53850651  0.34353599  0.28052675    -0.16800
H1059       H  0.56563001  0.33422200  0.28498042     0.05800
H1060       H  0.94976664  0.39761408  0.25947957     0.05800
C1061       C  0.76299217  0.38960010  0.19459664     0.03800
C1062       C  0.72647787  0.40023079  0.18921720     0.03700
C1063       C  0.70930518  0.40614339  0.22987315    -0.16800
C1064       C  0.72560212  0.39914491  0.27599525     0.03800
C1065       C  0.76141267  0.38758233  0.28115142     0.03700
C1066       C  0.77953204  0.38333310  0.24057902    -0.16800
H1067       H  0.80697446  0.37455805  0.24491768     0.05800
H1068       H  0.68147998  0.41415747  0.22582224     0.05800
C1069       C  0.73267538  0.12384614  0.21792746     0.03800
C1070       C  0.77109026  0.12452324  0.21867790     0.03700
C1071       C  0.79204638  0.12647587  0.26116492    -0.16800
C1072       C  0.77520949  0.12961920  0.30279379     0.03800
C1073       C  0.73677907  0.13115125  0.30111544     0.03700
C1074       C  0.71586691  0.12734620  0.25942529    -0.16800
H1075       H  0.68628841  0.12854943  0.25869536     0.05800
H1076       H  0.82160450  0.12706695  0.26119030     0.05800
C1077       C  0.69938914  0.37817173  0.12284707    -0.15000
C1078       C  0.70248106  0.40100142  0.14451910    -0.30100
H1079       H  0.71828937  0.36120247  0.13464017     0.14100
H1080       H  0.68086126  0.41657145  0.13761482     0.14600
C1081       C  0.70364028  0.40388653  0.31701183    -0.15000
C1082       C  0.70181047  0.38559744  0.35640971    -0.30100
H1083       H  0.68636975  0.42228968  0.31291832     0.14100
H1084       H  0.71668554  0.36611887  0.35908651     0.14600
C1085       C  0.54600843  0.36101902  0.15319637    -0.15000
C1086       C  0.54368434  0.34362298  0.19353032    -0.30100
H1087       H  0.53159754  0.38072574  0.14931315     0.14100
H1088       H  0.56065271  0.32504898  0.19895626     0.14600
C1089       C  0.54876807  0.37065933  0.39086884    -0.15000
C1090       C  0.54599717  0.34911443  0.36584644    -0.30100
H1091       H  0.52972256  0.38777154  0.38161615     0.14100
H1092       H  0.56782898  0.33366983  0.37111126     0.14600
C1093       C  0.78612440  0.39967645  0.35818997    -0.15000
C1094       C  0.78222120  0.38092115  0.32762017    -0.30100
H1095       H  0.77254389  0.41966073  0.34952123     0.14100
H1096       H  0.79946040  0.36246322  0.33310310     0.14600
C1097       C  0.80968248  0.39547941  0.13345213    -0.15000
C1098       C  0.78324533  0.38054042  0.15512553    -0.30100
H1099       H  0.81313889  0.41691868  0.13927885     0.14100
H1100       H  0.78059078  0.35898442  0.14973171     0.14600
C1101       C  0.96244436  0.38374262  0.35137609    -0.15000
C1102       C  0.93916046  0.36624888  0.37436832    -0.30100
H1103       H  0.96097817  0.40558349  0.35520184     0.14100
H1104       H  0.93971194  0.34450701  0.36971863     0.14600
C1105       C  0.96158404  0.36003548  0.16108872    -0.15000
C1106       C  0.97334085  0.38210113  0.18148162    -0.30100
H1107       H  0.96979245  0.33960242  0.17813377     0.14100
H1108       H  0.96218234  0.40242766  0.16819506     0.14600
C1109       C  0.79043460  0.12510745  0.17531725    -0.15000
C1110       C  0.78778291  0.10452847  0.14836373    -0.30100
H1111       H  0.81123843  0.14069720  0.16936943     0.14100
H1112       H  0.77054643  0.08696815  0.15773341     0.14600
C1113       C  0.82497707  0.11961557  0.36665815    -0.15000
C1114       C  0.79783959  0.13619988  0.34492080    -0.30100
H1115       H  0.82927841  0.09925086  0.35608345     0.14100
H1116       H  0.79204331  0.15569874  0.35796793     0.14600
C1117       C  0.94228928  0.15092002  0.17514332    -0.15000
C1118       C  0.93921598  0.12614766  0.15893166    -0.30100
H1119       H  0.92175464  0.16699224  0.16467721     0.14100
H1120       H  0.95835679  0.10983840  0.17409221     0.14600
C1121       C  0.97590745  0.16293220  0.34241621    -0.15000
C1122       C  0.97328071  0.14308767  0.37894995    -0.30100
H1123       H  0.96043358  0.18205386  0.34164082     0.14100
H1124       H  0.98665918  0.12321576  0.37846901     0.14600
C1125       C  0.71716673  0.13643117  0.34227480    -0.15000
C1126       C  0.72084955  0.11893979  0.38196876    -0.30100
H1127       H  0.69447845  0.15119341  0.33682040     0.14100
H1128       H  0.74003208  0.10165578  0.38486773     0.14600
C1129       C  0.68183747  0.10928824  0.16398532    -0.15000
C1130       C  0.70990266  0.12605819  0.17272657    -0.30100
H1131       H  0.67750410  0.09060176  0.18756575     0.14100
H1132       H  0.71489128  0.14368812  0.14693797     0.14600
C1133       C  0.55381634  0.13864055  0.32733622    -0.15000
C1134       C  0.56768217  0.15207492  0.36315771    -0.30100
H1135       H  0.56483008  0.11835715  0.32363201     0.14100
H1136       H  0.55871892  0.17306997  0.36559480     0.14600
C1137       C  0.51972678  0.15568091  0.15616319    -0.15000
C1138       C  0.53155804  0.13328280  0.13867198    -0.30100
H1139       H  0.52522739  0.17622880  0.13923303     0.14100
H1140       H  0.52583550  0.11289019  0.15613901     0.14600
O1141       O  0.71826391  0.21901989  0.97021284    -0.72900
O1142       O  0.78910130  0.27715192  0.96919034    -0.73000
O1143       O  0.79220624  0.22106089  0.96875932    -0.73000
O1144       O  0.71495600  0.27421619  0.97195637    -0.73100
O1145       O  0.71844407  0.27827413  0.55079662    -0.73000
O1146       O  0.79049406  0.22348011  0.53957848    -0.73000
O1147       O  0.79120664  0.27807174  0.54432450    -0.73000
O1148       O  0.71754628  0.22346720  0.54392569    -0.73000
Ni1149     Ni  0.75364667  0.24807744  0.96705276     1.25400
Ni1150     Ni  0.75456534  0.25055772  0.54723781     1.25400
C1151       C  0.70905696  0.20731924  0.01029620     0.89200
C1152       C  0.79996221  0.29156965  0.50538818     0.89200
C1153       C  0.80685019  0.20840923  0.00769539     0.89200
C1154       C  0.70248391  0.29189284  0.51394504     0.89400
O1155       O  0.95986514  0.47496514  0.96265378    -0.72900
O1156       O  0.53682765  0.02898631  0.98444626    -0.73000
O1157       O  0.53191228  0.46886785  0.95761155    -0.73000
O1158       O  0.96558887  0.02288116  0.98512751    -0.73100
O1159       O  0.97040016  0.02681667  0.55761608    -0.73000
O1160       O  0.54247654  0.47365301  0.54686177    -0.73000
O1161       O  0.54591758  0.02492177  0.55304909    -0.73000
O1162       O  0.97018827  0.47074257  0.54848550    -0.73000
Ni1163     Ni  0.00393213  0.99713994  0.97860537     1.25400
Ni1164     Ni  0.50411526  0.49917606  0.55484877     1.25400
C1165       C  0.95403377  0.46585631  0.50910385     0.89200
C1166       C  0.55274529  0.03811416  0.51287836     0.89200
C1167       C  0.55124247  0.46941875  0.50549601     0.89200
C1168       C  0.95495057  0.04030299  0.51986165     0.89400
O1169       O  0.58316743  0.06816509  0.97826788    -0.79400
O1170       O  0.66750505  0.17604142  0.97753460    -0.64100
O1171       O  0.64091440  0.10065515  0.00200123    -1.10700
C1172       C  0.56406873  0.13565805  0.60566994     1.07500
O1173       O  0.66984431  0.18410199  0.54955554    -0.77300
O1174       O  0.65351846  0.14358518  0.61418223    -0.64900
Ni1175     Ni  0.62863971  0.07895514  0.95310801     1.34900
C1176       C  0.65923519  0.11779035  0.61678788     0.86200
O1177       O  0.69042784  0.12996752  0.94595730    -0.77900
O1178       O  0.67341607  0.08844018  0.92485963    -0.88100
C1179       C  0.67605238  0.19440045  0.50793108     0.85800
O1180       O  0.60216063  0.10611723  0.91029138    -0.66300
O1181       O  0.58181207  0.15806804  0.60140743    -0.85600
C1182       C  0.60077840  0.13227664  0.90504763     0.86600
C1183       C  0.69435158  0.10922106  0.92328159     1.08200
H1184       H  0.59265638  0.15699441  0.50693558     0.40000
O1185       O  0.61444708  0.14864745  0.52379627    -1.08300
O1186       O  0.64256496  0.10252203  0.58907093    -0.64900
Ni1187     Ni  0.60452741  0.11016747  0.53776755     1.26300
O1188       O  0.61948461  0.14681991  0.93165360    -0.65200
O1189       O  0.56966392  0.11533768  0.58283516    -0.77400
C1190       C  0.57821040  0.06146825  0.50882484     0.86000
O1191       O  0.59298912  0.07137111  0.54481373    -0.64600
Ni1192     Ni  0.62521553  0.17026735  0.57332914     1.27400
Ni1193     Ni  0.65336658  0.13822224  0.98653593     1.26100
H1194       H  0.66150979  0.09808479  0.50962878     0.40500
O1195       O  0.92216279  0.06823595  0.56482177    -0.79400
O1196       O  0.83941747  0.18295711  0.53328418    -0.64100
O1197       O  0.86665757  0.10777111  0.53032959    -1.10700
C1198       C  0.94476766  0.13023002  0.91910611     1.07500
O1199       O  0.83992943  0.18017137  0.96447810    -0.77300
O1200       O  0.85185587  0.14097151  0.90937768    -0.64900
Ni1201     Ni  0.87948707  0.08418939  0.58767234     1.34900
C1202       C  0.85041544  0.11500166  0.90956385     0.86200
O1203       O  0.81552812  0.13594803  0.57585896    -0.77900
O1204       O  0.83801070  0.09678286  0.61726853    -0.88100
C1205       C  0.82732506  0.19762636  0.49568855     0.85800
O1206       O  0.91033936  0.10955465  0.61612526    -0.66300
O1207       O  0.92431777  0.15169341  0.91449325    -0.85600
C1208       C  0.90855272  0.13553618  0.61587265     0.86600
C1209       C  0.81476430  0.11660514  0.60990452     1.08200
H1210       H  0.91508461  0.14687324  0.01390037     0.40000
O1211       O  0.89382465  0.13959315  0.99804532    -1.08300
O1212       O  0.86957555  0.09813835  0.93908093    -0.64900
Ni1213     Ni  0.90436203  0.10172662  0.99263908     1.26300
O1214       O  0.88658614  0.15094910  0.58775692    -0.65200
O1215       O  0.94177792  0.10973677  0.95036795    -0.77400
C1216       C  0.92905682  0.06295499  0.52368597     0.86000
O1217       O  0.91553463  0.06355362  0.99212231    -0.64600
Ni1218     Ni  0.88270249  0.16451789  0.94232661     1.27400
Ni1219     Ni  0.85332551  0.14528787  0.53403822     1.26100
H1220       H  0.84627294  0.09931176  0.51459478     0.40500
O1221       O  0.91478616  0.43338344  0.95657872    -0.79400
O1222       O  0.84054387  0.32035202  0.97637988    -0.64100
O1223       O  0.85977584  0.39679310  0.98282519    -1.10700
C1224       C  0.94456435  0.35986131  0.61749157     1.07500
O1225       O  0.83733538  0.31794064  0.55086354    -0.77300
O1226       O  0.85526896  0.35200484  0.61374911    -0.64900
Ni1227     Ni  0.86950225  0.42137908  0.92873387     1.34900
C1228       C  0.84804748  0.37766652  0.60988018     0.86200
O1229       O  0.81764495  0.36633222  0.92041652    -0.77900
O1230       O  0.82469891  0.41149007  0.89660584    -0.88100
C1231       C  0.82539616  0.30816495  0.01195190     0.85800
O1232       O  0.89718957  0.39685842  0.89695283    -0.66300
O1233       O  0.92765166  0.33748816  0.61311530    -0.85600
C1234       C  0.90595182  0.37143016  0.90476123     0.86600
C1235       C  0.80892684  0.38853912  0.89340291     1.08200
H1236       H  0.91367270  0.34819709  0.51534303     0.40000
O1237       O  0.89201521  0.35510876  0.52777487    -1.08300
O1238       O  0.86367953  0.39539518  0.58140704    -0.64900
Ni1239     Ni  0.90225365  0.39221962  0.53830575     1.26300
O1240       O  0.89139998  0.35472093  0.93605776    -0.65200
O1241       O  0.93700693  0.38259415  0.59150994    -0.77400
C1242       C  0.92856653  0.44312214  0.50593502     0.86000
O1243       O  0.91433882  0.43031127  0.54167734    -0.64600
Ni1244     Ni  0.88279130  0.32880008  0.57966509     1.27400
Ni1245     Ni  0.85093486  0.35898226  0.97610252     1.26100
H1246       H  0.83763409  0.40391819  0.99372141     0.40500
O1247       O  0.67899571  0.32267277  0.56253010    -0.79400
O1248       O  0.59577387  0.43609111  0.53678112    -0.64100
O1249       O  0.62109334  0.36048796  0.54025091    -1.10700
C1250       C  0.66634831  0.37047263  0.88199579     1.07500
O1251       O  0.57047160  0.42302199  0.94719546    -0.77300
O1252       O  0.56991742  0.37556154  0.90495261    -0.65300
Ni1253     Ni  0.64478873  0.34164046  0.59730720     1.34900
C1254       C  0.57390689  0.34948693  0.91226286     0.86200
O1255       O  0.57973115  0.39154032  0.59295690    -0.77900
O1256       O  0.61112815  0.35721164  0.63789316    -0.88100
C1257       C  0.57970824  0.44921188  0.50026064     0.85800
O1258       O  0.68132571  0.36898986  0.60750883    -0.66300
O1259       O  0.63975789  0.38791619  0.87445365    -0.85600
C1260       C  0.67826797  0.39512393  0.60045787     0.86600
C1261       C  0.58534074  0.37536133  0.63133339     1.08200
H1262       H  0.65091379  0.39595546  0.97817595     0.40000
O1263       O  0.62907460  0.38571825  0.97167742    -1.08300
O1264       O  0.60273213  0.33764033  0.93236953    -0.64900
Ni1265     Ni  0.64271127  0.34805753  0.97344605     1.26300
O1266       O  0.64985711  0.40752259  0.58056013    -0.65200
O1267       O  0.67251567  0.35499903  0.92102746    -0.77400
C1268       C  0.67750868  0.31457189  0.52125087     0.86000
O1269       O  0.65830806  0.31053115  0.97862236    -0.64600
Ni1270     Ni  0.60544506  0.40369575  0.91390177     1.27400
Ni1271     Ni  0.60912472  0.39831559  0.53998498     1.26100
H1272       H  0.59879689  0.35081880  0.53386820     0.40500
C1273       C  0.51926358  0.14567734  0.71773338     0.03800
C1274       C  0.98162036  0.14232545  0.71663233     0.03700
C1275       C  0.96585272  0.14317925  0.75961921    -0.16800
C1276       C  0.98787302  0.14231338  0.80200566     0.03800
C1277       C  0.52557050  0.14288771  0.80359693     0.03700
C1278       C  0.54121376  0.14568230  0.76003207    -0.16800
H1279       H  0.57072528  0.14593273  0.75909332     0.05800
H1280       H  0.93634025  0.14287803  0.76056236     0.05800
C1281       C  0.52936616  0.36362793  0.74394327     0.03800
C1282       C  0.99623744  0.37690719  0.72963208     0.03700
C1283       C  0.97325769  0.38250651  0.76492566    -0.16800
C1284       C  0.98021270  0.37133270  0.81235925     0.03800
C1285       C  0.51216140  0.35482021  0.82665497     0.03700
C1286       C  0.53738812  0.35258875  0.79176781    -0.16800
H1287       H  0.56239573  0.34069314  0.80129260     0.05800
H1288       H  0.94778751  0.39373134  0.75465480     0.05800
C1289       C  0.77262295  0.37512394  0.69980093     0.03800
C1290       C  0.73977145  0.39024648  0.68697104     0.03700
C1291       C  0.71440548  0.39257069  0.72162559    -0.16800
C1292       C  0.72243274  0.38184379  0.76961081     0.03800
C1293       C  0.75729799  0.36928752  0.78254701     0.03700
C1294       C  0.78032421  0.36416068  0.74712593    -0.16800
H1295       H  0.80630819  0.35361014  0.75713056     0.05800
H1296       H  0.68930065  0.40429932  0.71177723     0.05800
C1297       C  0.73022035  0.11390500  0.72331603     0.03800
C1298       C  0.76730247  0.10534069  0.72553419     0.03700
C1299       C  0.78867105  0.10413809  0.76890431    -0.16800
C1300       C  0.77424956  0.11271971  0.80927753     0.03800
C1301       C  0.73688036  0.11993171  0.80727489     0.03700
C1302       C  0.71541628  0.12053158  0.76459849    -0.16800
H1303       H  0.68704803  0.12721598  0.76309885     0.05800
H1304       H  0.81758738  0.09918030  0.76987655     0.05800
C1305       C  0.70952542  0.41313076  0.60922827    -0.15000
C1306       C  0.73710883  0.40964723  0.64286745    -0.30100
H1307       H  0.71094310  0.43132969  0.58341802     0.14100
H1308       H  0.75849281  0.42488476  0.64000906     0.14600
C1309       C  0.69476746  0.38539171  0.80515854    -0.15000
C1310       C  0.69164270  0.36719875  0.84430168    -0.30100
H1311       H  0.67601917  0.40294121  0.79826063     0.14100
H1312       H  0.70917543  0.34896421  0.84999762     0.14600
C1313       C  0.56028718  0.37859485  0.66938454    -0.15000
C1314       C  0.55688066  0.36013399  0.70813890    -0.30100
H1315       H  0.54314985  0.39704681  0.66429608     0.14100
H1316       H  0.57526212  0.34235531  0.71450925     0.14600
C1317       C  0.54315813  0.33105898  0.90313405    -0.15000
C1318       C  0.51492002  0.33511668  0.87043914    -0.30100
H1319       H  0.54225669  0.31253493  0.92830552     0.14100
H1320       H  0.49342855  0.31995528  0.87319055     0.14600
C1321       C  0.78025022  0.38816249  0.85452979    -0.15000
C1322       C  0.77422337  0.36585490  0.83178477    -0.30100
H1323       H  0.76856463  0.40792279  0.83871277     0.14100
H1324       H  0.78902033  0.34674878  0.84434907     0.14600
C1325       C  0.82001952  0.38691105  0.64040069    -0.15000
C1326       C  0.79880490  0.36843251  0.66483912    -0.30100
H1327       H  0.81743871  0.40873380  0.64359662     0.14100
H1328       H  0.80289845  0.34657550  0.66269401     0.14600
C1329       C  0.95393438  0.37892700  0.84696096    -0.15000
C1330       C  0.93434564  0.36116966  0.87544666    -0.30100
H1331       H  0.94812160  0.40087937  0.84524912     0.14100
H1332       H  0.93817833  0.33909839  0.87628310     0.14600
C1333       C  0.97302320  0.35907570  0.65678561    -0.15000
C1334       C  0.97976417  0.38102144  0.68025558    -0.30100
H1335       H  0.98370761  0.33894125  0.67223915     0.14100
H1336       H  0.96589084  0.40054480  0.66792615     0.14600
C1337       C  0.78629087  0.09976393  0.68343496    -0.15000
C1338       C  0.78693082  0.11825268  0.64448417    -0.30100
H1339       H  0.80528898  0.08233088  0.68819864     0.14100
H1340       H  0.77014259  0.13685009  0.64098588     0.14600
C1341       C  0.82577626  0.10422443  0.87259261    -0.15000
C1342       C  0.79890906  0.12036775  0.84915064    -0.30100
H1343       H  0.82980172  0.08333093  0.86424488     0.14100
H1344       H  0.79374832  0.14048545  0.86032293     0.14600
C1345       C  0.95940564  0.13311230  0.67648463    -0.15000
C1346       C  0.93254479  0.14814926  0.65108610    -0.30100
H1347       H  0.96458727  0.11211704  0.66947091     0.14100
H1348       H  0.92758734  0.16933654  0.65730723     0.14600
C1349       C  0.96963455  0.14648348  0.84463093    -0.15000
C1350       C  0.97141556  0.12825599  0.88375037    -0.30100
H1351       H  0.94999437  0.16350706  0.84060054     0.14100
H1352       H  0.98841518  0.10982476  0.88646878     0.14600
C1353       C  0.71876246  0.12635886  0.84945667    -0.15000
C1354       C  0.72296116  0.10957472  0.89026548    -0.30100
H1355       H  0.69657334  0.14155037  0.84445273     0.14100
H1356       H  0.74149030  0.09190114  0.89339983     0.14600
C1357       C  0.68623555  0.10554327  0.65506396    -0.15000
C1358       C  0.70832956  0.12226214  0.67826713    -0.30100
H1359       H  0.68675314  0.08344293  0.66582438     0.14100
H1360       H  0.70738176  0.14434579  0.66721964     0.14600
C1361       C  0.54854032  0.13248684  0.84678962    -0.15000
C1362       C  0.57643043  0.14622146  0.86561467    -0.30100
H1363       H  0.54332970  0.11154594  0.86198696     0.14100
H1364       H  0.58137425  0.16748540  0.85184355     0.14600
C1365       C  0.53729568  0.15072260  0.67353634    -0.15000
C1366       C  0.53743058  0.13257937  0.64177677    -0.30100
H1367       H  0.55536007  0.16831671  0.67094525     0.14100
H1368       H  0.52197182  0.11369407  0.64640780     0.14600
O1369       O  0.71640844  0.72606640  0.45099056    -0.72900
O1370       O  0.78604586  0.78567091  0.45086125    -0.73000
O1371       O  0.79061458  0.72983789  0.44733883    -0.73000
O1372       O  0.71233677  0.78179939  0.45436042    -0.73100
O1373       O  0.71023672  0.76767960  0.03851928    -0.73000
O1374       O  0.78900204  0.71700510  0.03138701    -0.73000
O1375       O  0.78361164  0.77175900  0.03754785    -0.73000
O1376       O  0.71596936  0.71362876  0.03274761    -0.73000
Ni1377     Ni  0.75120290  0.75602924  0.44781569     1.25400
Ni1378     Ni  0.74996002  0.74228090  0.03762954     1.25400
C1379       C  0.70865064  0.71335872  0.49119327     0.89200
C1380       C  0.79284994  0.78591909  0.99956468     0.89200
C1381       C  0.80680023  0.71772763  0.48569017     0.89200
C1382       C  0.69424835  0.78046011  0.00072179     0.89400
O1383       O  0.96017510  0.97955848  0.47582598    -0.72900
O1384       O  0.53070094  0.53604008  0.47306880    -0.73000
O1385       O  0.53476225  0.97683406  0.46946744    -0.73000
O1386       O  0.96281128  0.53407847  0.47362212    -0.73100
O1387       O  0.96963920  0.51996346  0.04900366    -0.73000
O1388       O  0.54857939  0.96544976  0.05685549    -0.73000
O1389       O  0.54441049  0.51644843  0.04302143    -0.73000
O1390       O  0.97521872  0.95952692  0.05876807    -0.73000
Ni1391     Ni  0.99784542  0.50672973  0.46485871     1.25400
Ni1392     Ni  0.50953204  0.99103234  0.06404035     1.25400
C1393       C  0.96151125  0.95414741  0.01816784     0.89200
C1394       C  0.55208215  0.52957247  0.00317868     0.89200
C1395       C  0.55815941  0.96169044  0.01558538     0.89200
C1396       C  0.95472983  0.53412949  0.01163104     0.89400
O1397       O  0.58413843  0.57043817  0.46503793    -0.79400
O1398       O  0.66918714  0.67937993  0.46130632    -0.64100
O1399       O  0.64172388  0.60406209  0.48998678    -1.10700
C1400       C  0.56318833  0.62728209  0.09682507     1.07500
O1401       O  0.66751227  0.67557853  0.03819317    -0.77300
O1402       O  0.65038398  0.63626180  0.10408819    -0.64900
Ni1403     Ni  0.63055657  0.58117668  0.44207479     1.34900
C1404       C  0.65831418  0.61079892  0.10647212     0.86200
O1405       O  0.69212411  0.63236249  0.43372314    -0.77900
O1406       O  0.67597079  0.59017313  0.41506743    -0.88100
C1407       C  0.67415787  0.68557266  0.99654351     0.85800
O1408       O  0.60491227  0.60781845  0.39751834    -0.66300
O1409       O  0.57883143  0.65048536  0.08942867    -0.85600
C1410       C  0.60346945  0.63396431  0.39136836     0.86600
C1411       C  0.69642040  0.61122254  0.41227010     1.08200
H1412       H  0.59028837  0.64782878  0.99649456     0.40000
O1413       O  0.61241525  0.64004897  0.01333779    -1.08300
O1414       O  0.64314899  0.59492735  0.07845051    -0.64900
Ni1415     Ni  0.60371906  0.60153953  0.02841890     1.26300
O1416       O  0.62154035  0.64904882  0.41762669    -0.65200
O1417       O  0.56985352  0.60645101  0.07546061    -0.77400
C1418       C  0.57789471  0.55270426  0.99956961     0.86000
O1419       O  0.59289969  0.56254239  0.03562251    -0.64600
Ni1420     Ni  0.62250950  0.66237473  0.06172401     1.27400
Ni1421     Ni  0.65487266  0.64151747  0.47309270     1.26100
H1422       H  0.66024405  0.58988741  0.99815108     0.40500
O1423       O  0.92129129  0.56154745  0.05744471    -0.79400
O1424       O  0.83975721  0.67693015  0.02535122    -0.64100
O1425       O  0.86584627  0.60134331  0.02290649    -1.10700
C1426       C  0.94615673  0.63680331  0.40131890     1.07500
O1427       O  0.84202244  0.69018296  0.44237166    -0.77300
O1428       O  0.85397180  0.64918027  0.38946761    -0.64900
Ni1429     Ni  0.87868061  0.57790321  0.08057062     1.34900
C1430       C  0.85057682  0.62313901  0.39366991     0.86200
O1431       O  0.81566176  0.63026260  0.06817584    -0.77900
O1432       O  0.83706444  0.59082795  0.10988600    -0.88100
C1433       C  0.82687284  0.69115167  0.98773300     0.85800
O1434       O  0.90978321  0.60327767  0.10916727    -0.66300
O1435       O  0.92737344  0.65926404  0.39493862    -0.85600
C1436       C  0.90916281  0.62942547  0.10661880     0.86600
C1437       C  0.81420473  0.61094160  0.10197616     1.08200
H1438       H  0.91741443  0.65698784  0.49328603     0.40000
O1439       O  0.89552909  0.64983154  0.47865330    -1.08300
O1440       O  0.86814973  0.60692333  0.42569555    -0.64900
Ni1441     Ni  0.90398667  0.61149448  0.47697513     1.26300
O1442       O  0.88739339  0.64470603  0.07816987    -0.65200
O1443       O  0.94066133  0.61687059  0.43282922    -0.77400
C1444       C  0.92836427  0.55645482  0.01613986     0.86000
O1445       O  0.91290930  0.57311719  0.48025517    -0.64600
Ni1446     Ni  0.88503800  0.67343097  0.42116328     1.27400
Ni1447     Ni  0.85303453  0.63905165  0.02607825     1.26100
H1448       H  0.84531314  0.59294054  0.00739298     0.40500
O1449       O  0.92800967  0.93244365  0.47094200    -0.79400
O1450       O  0.83877609  0.82884694  0.46317071    -0.64100
O1451       O  0.86654193  0.90213092  0.48372532    -1.10700
C1452       C  0.93164251  0.84953476  0.12655790     1.07500
O1453       O  0.82205506  0.81619999  0.04708953    -0.77300
O1454       O  0.83878111  0.85173103  0.10953633    -0.64900
Ni1455     Ni  0.88361411  0.92730108  0.43488666     1.34900
C1456       C  0.84121859  0.87773636  0.10794763     0.86200
O1457       O  0.82489149  0.87854613  0.41446648    -0.77900
O1458       O  0.83992408  0.92314923  0.39617014    -0.88100
C1459       C  0.82098475  0.81659750  0.49610378     0.85800
O1460       O  0.90964027  0.90240730  0.40191870    -0.66300
O1461       O  0.90853594  0.83018791  0.12450073    -0.85600
C1462       C  0.91358674  0.87637253  0.40606013     0.86600
C1463       C  0.82131755  0.90189642  0.38926312     1.08200
H1464       H  0.90556730  0.83689905  0.02311854     0.40000
O1465       O  0.88485434  0.84691746  0.03211638    -1.08300
O1466       O  0.86368532  0.89178601  0.08294505    -0.64900
Ni1467     Ni  0.90128476  0.88300208  0.04182178     1.26300
O1468       O  0.89502733  0.86014007  0.43331115    -0.65200
O1469       O  0.93242734  0.87067273  0.09598115    -0.77400
C1470       C  0.93646868  0.93124423  0.01268369     0.86000
O1471       O  0.91928630  0.91954117  0.04652614    -0.64600
Ni1472     Ni  0.86590481  0.82427748  0.08353609     1.27400
Ni1473     Ni  0.85383919  0.86600098  0.47056685     1.26100
H1474       H  0.84470215  0.91053064  0.49316495     0.40500
O1475       O  0.65511465  0.80131512  0.04798463    -0.79400
O1476       O  0.59982390  0.92457331  0.04400418    -0.64100
O1477       O  0.61034273  0.84863357  0.02579937    -1.10700
C1478       C  0.65698074  0.88719999  0.37428334     1.07500
O1479       O  0.56350979  0.92850460  0.45913011    -0.77300
O1480       O  0.56257935  0.88249595  0.41354773    -0.65300
Ni1481     Ni  0.61962972  0.82068276  0.07896322     1.34900
C1482       C  0.57111887  0.85726231  0.41334516     0.86200
O1483       O  0.57194313  0.87927837  0.08547704    -0.77900
O1484       O  0.58631407  0.83652507  0.11911571    -0.88100
C1485       C  0.58627146  0.94103652  0.00928240     0.85800
O1486       O  0.65918679  0.83927214  0.10493474    -0.66300
O1487       O  0.62650554  0.90017733  0.37265276    -0.85600
C1488       C  0.66603443  0.86450317  0.10594045     0.86600
C1489       C  0.56955192  0.85952371  0.11851584     1.08200
H1490       H  0.64662479  0.90688338  0.47598102     0.40000
O1491       O  0.62579905  0.89531006  0.47086077    -1.08300
O1492       O  0.60328399  0.84800046  0.42450558    -0.64900
Ni1493     Ni  0.64257114  0.85912965  0.46609066     1.26300
O1494       O  0.64621172  0.88433462  0.08453341    -0.65200
O1495       O  0.66974530  0.87150904  0.41125521    -0.77400
C1496       C  0.66495557  0.80040059  0.00624599     0.86000
O1497       O  0.66184740  0.82275258  0.46511132    -0.64600
Ni1498     Ni  0.59564021  0.91269018  0.41840200     1.27400
Ni1499     Ni  0.60584367  0.88631881  0.03712670     1.26100
H1500       H  0.58733130  0.84381859  0.01059255     0.40500
C1501       C  0.52083986  0.63927019  0.21122944     0.03800
C1502       C  0.97681269  0.64136164  0.21042587     0.03700
C1503       C  0.96910367  0.64260305  0.25751566    -0.16800
C1504       C  0.99652821  0.64868496  0.29138542     0.03800
C1505       C  0.52469449  0.64242402  0.29612404     0.03700
C1506       C  0.54157772  0.64170675  0.25369686    -0.16800
H1507       H  0.57115928  0.64141469  0.25401838     0.05800
H1508       H  0.94155248  0.63866246  0.26801208     0.05800
C1509       C  0.52305940  0.85529228  0.23963118     0.03800
C1510       C  0.99199481  0.86962370  0.22967250     0.03700
C1511       C  0.97449022  0.87966323  0.26641888    -0.16800
C1512       C  0.98510875  0.87072740  0.31380071     0.03800
C1513       C  0.51399895  0.85272452  0.32532268     0.03700
C1514       C  0.53450320  0.84621420  0.28748145    -0.16800
H1515       H  0.55826108  0.83272068  0.29519871     0.05800
H1516       H  0.94987251  0.89223371  0.25809582     0.05800
C1517       C  0.76716915  0.88930280  0.19380424     0.03800
C1518       C  0.72914423  0.89459162  0.19265209     0.03700
C1519       C  0.71118718  0.89419986  0.23495930    -0.16800
C1520       C  0.73033476  0.88833635  0.27945889     0.03800
C1521       C  0.76860787  0.88523870  0.27994120     0.03700
C1522       C  0.78665267  0.88572861  0.23795582    -0.16800
H1523       H  0.81590211  0.88186150  0.23997290     0.05800
H1524       H  0.68170108  0.89600001  0.23236478     0.05800
C1525       C  0.72861907  0.61133281  0.21335217     0.03800
C1526       C  0.76587407  0.60314495  0.21590385     0.03700
C1527       C  0.78811276  0.60518551  0.25766253    -0.16800
C1528       C  0.77408604  0.61592677  0.29632966     0.03800
C1529       C  0.73645950  0.62174662  0.29507764     0.03700
C1530       C  0.71427027  0.61987331  0.25364840    -0.16800
H1531       H  0.68565925  0.62589120  0.25233057     0.05800
H1532       H  0.81719940  0.60090880  0.25827956     0.05800
C1533       C  0.69830424  0.86989011  0.13556707    -0.15000
C1534       C  0.70565692  0.89448954  0.14919270    -0.30100
H1535       H  0.71404054  0.85192116  0.15229073     0.14100
H1536       H  0.68826687  0.91231253  0.13665196     0.14600
C1537       C  0.71106742  0.88304982  0.32504672    -0.15000
C1538       C  0.67658265  0.89142142  0.32977810    -0.30100
H1539       H  0.72589690  0.87209908  0.35602220     0.14100
H1540       H  0.66181675  0.90353517  0.30004959     0.14600
C1541       C  0.54658458  0.86455881  0.15809906    -0.15000
C1542       C  0.54546778  0.84809838  0.19997601    -0.30100
H1543       H  0.53182088  0.88411983  0.15347644     0.14100
H1544       H  0.56283852  0.82976028  0.20640895     0.14600
C1545       C  0.54292789  0.83635096  0.40743179    -0.15000
C1546       C  0.51803078  0.83486959  0.37107137    -0.30100
H1547       H  0.54318639  0.81949922  0.43606677     0.14100
H1548       H  0.49940105  0.81765332  0.37444297     0.14600
C1549       C  0.79540773  0.90395294  0.34832881    -0.15000
C1550       C  0.79095707  0.88226248  0.32423623    -0.30100
H1551       H  0.78261411  0.92376863  0.33503239     0.14100
H1552       H  0.80648058  0.86319573  0.33448416     0.14600
C1553       C  0.81840496  0.89185618  0.13935125    -0.15000
C1554       C  0.78560291  0.88204708  0.15150102    -0.30100
H1555       H  0.83006367  0.90903458  0.15590078     0.14100
H1556       H  0.77360516  0.86587380  0.13269584     0.14600
C1557       C  0.96287309  0.88075088  0.35027951    -0.15000
C1558       C  0.94049286  0.86451856  0.37689276    -0.30100
H1559       H  0.96130312  0.90297587  0.35024732     0.14100
H1560       H  0.94066172  0.84240389  0.37541251     0.14600
C1561       C  0.95804000  0.84798938  0.16774327    -0.15000
C1562       C  0.97105107  0.87111959  0.18360078    -0.30100
H1563       H  0.96404127  0.82804123  0.18823089     0.14100
H1564       H  0.96216533  0.89129430  0.16613743     0.14600
C1565       C  0.78438140  0.59553210  0.17491419    -0.15000
C1566       C  0.78579088  0.61323937  0.13533643    -0.30100
H1567       H  0.80312177  0.57795161  0.18127351     0.14100
H1568       H  0.76918948  0.63198604  0.13058326     0.14600
C1569       C  0.82564152  0.61101554  0.35882072    -0.15000
C1570       C  0.79898331  0.62625847  0.33339171    -0.30100
H1571       H  0.82900421  0.58941320  0.35410774     0.14100
H1572       H  0.79405467  0.64722070  0.34096206     0.14600
C1573       C  0.94930017  0.62940445  0.17887574    -0.15000
C1574       C  0.93526280  0.64289201  0.13786441    -0.30100
H1575       H  0.93957255  0.60895118  0.19088567     0.14100
H1576       H  0.94264625  0.66417387  0.12759887     0.14600
C1577       C  0.98513814  0.65346369  0.33812348    -0.15000
C1578       C  0.97374234  0.63252392  0.36779889    -0.30100
H1579       H  0.97869373  0.67461814  0.34317227     0.14100
H1580       H  0.98048139  0.61145029  0.36242776     0.14600
C1581       C  0.71893009  0.62828991  0.33746528    -0.15000
C1582       C  0.72440619  0.61176381  0.37846859    -0.30100
H1583       H  0.69615816  0.64297805  0.33271375     0.14100
H1584       H  0.74353593  0.59445639  0.38140433     0.14600
C1585       C  0.68622196  0.59993116  0.14485760    -0.15000
C1586       C  0.70620731  0.61795602  0.16811398    -0.30100
H1587       H  0.68897187  0.57789427  0.15566992     0.14100
H1588       H  0.70292169  0.63993640  0.15684797     0.14600
C1589       C  0.54673938  0.63627524  0.34176163    -0.15000
C1590       C  0.57958411  0.64707077  0.35117924    -0.30100
H1591       H  0.53728217  0.61989888  0.36697432     0.14100
H1592       H  0.58944337  0.66443625  0.32826264     0.14600
C1593       C  0.54038352  0.64186694  0.16771129    -0.15000
C1594       C  0.53783781  0.62428193  0.13476378    -0.30100
H1595       H  0.56063211  0.65805069  0.16537768     0.14100
H1596       H  0.52072848  0.60624820  0.13881846     0.14600
O1597       O  0.70889786  0.72152531  0.95385951    -0.72900
O1598       O  0.77950263  0.78062694  0.95870473    -0.73000
O1599       O  0.78318536  0.72510401  0.95242259    -0.73000
O1600       O  0.70468464  0.77695542  0.95971498    -0.73100
O1601       O  0.71922485  0.77369647  0.53330067    -0.73000
O1602       O  0.79762211  0.72288491  0.52634166    -0.73000
O1603       O  0.79156876  0.77776335  0.52987625    -0.73000
O1604       O  0.72449394  0.71934718  0.52991873    -0.73000
Ni1605     Ni  0.74393991  0.75139113  0.95315983     1.25400
Ni1606     Ni  0.75855906  0.74812881  0.53241643     1.25400
C1607       C  0.70089438  0.70801486  0.99330991     0.89200
C1608       C  0.79903715  0.79196190  0.49116106     0.89200
C1609       C  0.79859457  0.71228491  0.99066132     0.89200
C1610       C  0.70319496  0.78633193  0.49547553     0.89400
O1611       O  0.97003137  0.96816125  0.97982688    -0.72900
O1612       O  0.53629522  0.52375263  0.96416897    -0.73000
O1613       O  0.54224387  0.97486957  0.97808480    -0.73000
O1614       O  0.96294105  0.52952112  0.97027274    -0.73100
O1615       O  0.97099274  0.52611075  0.55254098    -0.73000
O1616       O  0.54478074  0.96857399  0.54812108    -0.73000
O1617       O  0.53940946  0.52878324  0.55191237    -0.73000
O1618       O  0.96888390  0.97068476  0.55451987    -0.73000
Ni1619     Ni  0.99771670  0.50147439  0.96127096     1.25400
Ni1620     Ni  0.50913088  0.99641521  0.55722040     1.25400
C1621       C  0.95342205  0.96533227  0.51494920     0.89200
C1622       C  0.54722399  0.54149366  0.51175087     0.89200
C1623       C  0.54983309  0.96261258  0.50630922     0.89200
C1624       C  0.95494856  0.53901748  0.51481622     0.89400
O1625       O  0.58185498  0.56428213  0.95786171    -0.79400
O1626       O  0.65982204  0.67543601  0.96069714    -0.64100
O1627       O  0.63824053  0.59842677  0.98215063    -1.10700
C1628       C  0.56084441  0.63981944  0.59119020     1.07500
O1629       O  0.66989263  0.68571049  0.53713399    -0.77300
O1630       O  0.65127846  0.64733546  0.60398920    -0.64900
Ni1631     Ni  0.62607088  0.57750749  0.93186380     1.34900
C1632       C  0.65607393  0.62137290  0.61011235     0.86200
O1633       O  0.68279365  0.63131119  0.92361815    -0.77900
O1634       O  0.66996946  0.58890802  0.90331117    -0.88100
C1635       C  0.68066781  0.69193776  0.49579794     0.85800
O1636       O  0.59753874  0.60475740  0.89091542    -0.66300
O1637       O  0.57920774  0.66196132  0.58663937    -0.85600
C1638       C  0.59266143  0.63063040  0.88984621     0.86600
C1639       C  0.68881055  0.61077534  0.90136989     1.08200
H1640       H  0.59572822  0.65675726  0.49179772     0.40000
O1641       O  0.61615764  0.64872744  0.51208544    -1.08300
O1642       O  0.63945130  0.60500549  0.58450878    -0.64900
Ni1643     Ni  0.60417601  0.61098351  0.53017208     1.26300
O1644       O  0.61003506  0.64492700  0.91824158    -0.65200
O1645       O  0.56724568  0.61887049  0.57050817    -0.77400
C1646       C  0.57596286  0.56234420  0.50702794     0.86000
O1647       O  0.59080946  0.57292051  0.54206570    -0.64600
Ni1648     Ni  0.62410870  0.67269435  0.55927858     1.27400
Ni1649     Ni  0.64801306  0.63674776  0.96853698     1.26100
H1650       H  0.66212842  0.59519014  0.50928185     0.40500
O1651       O  0.92020013  0.56638530  0.55853905    -0.79400
O1652       O  0.85051809  0.68410614  0.52088664    -0.64100
O1653       O  0.86719137  0.60709586  0.52096227    -1.10700
C1654       C  0.94530450  0.63912177  0.90799467     1.07500
O1655       O  0.83626227  0.68652551  0.94720843    -0.77300
O1656       O  0.85466941  0.64833690  0.89239527    -0.64900
Ni1657     Ni  0.87620876  0.58242382  0.57762443     1.34900
C1658       C  0.85051476  0.62239418  0.89499579     0.86200
O1659       O  0.82399399  0.63991330  0.56992763    -0.77900
O1660       O  0.83346457  0.59593644  0.60262828    -0.88100
C1661       C  0.83526356  0.69669851  0.48296204     0.85800
O1662       O  0.90603512  0.60610454  0.61104665    -0.66300
O1663       O  0.92682728  0.66149158  0.90515573    -0.85600
C1664       C  0.91319637  0.63161951  0.60632403     0.86600
C1665       C  0.81689496  0.61919183  0.59920282     1.08200
H1666       H  0.91164922  0.65378746  0.00142367     0.40000
O1667       O  0.89095207  0.64661904  0.98424418    -1.08300
O1668       O  0.86686755  0.60523777  0.92691055    -0.64900
Ni1669     Ni  0.90252766  0.60892368  0.97910102     1.26300
O1670       O  0.89764667  0.64890599  0.57388945    -0.65200
O1671       O  0.93889935  0.61733852  0.93515177    -0.77400
C1672       C  0.92749213  0.56027484  0.51810198     0.86000
O1673       O  0.91463565  0.57086801  0.97901150    -0.64600
Ni1674     Ni  0.88191118  0.67237767  0.92889589     1.27400
Ni1675     Ni  0.85959932  0.64544763  0.52399626     1.26100
H1676       H  0.84535814  0.60054411  0.50526150     0.40500
O1677       O  0.93332816  0.92289759  0.97210370    -0.79400
O1678       O  0.83529978  0.82112018  0.97171381    -0.64100
O1679       O  0.86952129  0.89385433  0.98697601    -1.10700
C1680       C  0.92905804  0.85394898  0.61990340     1.07500
O1681       O  0.82077484  0.82609047  0.53561467    -0.77300
O1682       O  0.83803150  0.85634461  0.60528010    -0.64900
Ni1683     Ni  0.88824778  0.91737313  0.93683626     1.34900
C1684       C  0.83701689  0.88242368  0.60360491     0.86200
O1685       O  0.82310923  0.87092130  0.92050916    -0.77900
O1686       O  0.84412581  0.91361993  0.89846627    -0.88100
C1687       C  0.81846562  0.80876819  0.00569583     0.85800
O1688       O  0.91319585  0.89061268  0.90642852    -0.66300
O1689       O  0.90720827  0.83426303  0.61412162    -0.85600
C1690       C  0.91347622  0.86446150  0.90965967     0.86600
C1691       C  0.82195315  0.89397696  0.89387657     1.08200
H1692       H  0.90552309  0.84620660  0.51827492     0.40000
O1693       O  0.88385059  0.85528577  0.52675744    -1.08300
O1694       O  0.85791148  0.89808343  0.57862835    -0.64900
Ni1695     Ni  0.89777811  0.89124709  0.53941626     1.26300
O1696       O  0.89272829  0.84960357  0.93641350    -0.65200
O1697       O  0.92781124  0.87760639  0.59493920    -0.77400
C1698       C  0.93001317  0.94126049  0.51108156     0.86000
O1699       O  0.91433263  0.92838841  0.54563992    -0.64600
Ni1700     Ni  0.86426044  0.83073620  0.57411663     1.27400
Ni1701     Ni  0.85357283  0.85787469  0.97626046     1.26100
H1702       H  0.84871613  0.90351239  0.99657448     0.40500
O1703       O  0.66557667  0.80822142  0.54278330    -0.79400
O1704       O  0.59169394  0.92526335  0.53130906    -0.64100
O1705       O  0.61229183  0.84965438  0.51970177    -1.10700
C1706       C  0.68317867  0.88347013  0.89864363     1.07500
O1707       O  0.59394658  0.93913955  0.96698844    -0.77300
O1708       O  0.59247068  0.90145706  0.90865660    -0.65300
Ni1709     Ni  0.62692543  0.82381927  0.57375972     1.34900
C1710       C  0.58595038  0.87612300  0.90774123     0.86200
O1711       O  0.57717489  0.87947164  0.58600237    -0.77900
O1712       O  0.58970865  0.83545137  0.61289706    -0.88100
C1713       C  0.57044008  0.93793260  0.49867084     0.85800
O1714       O  0.66171561  0.84737793  0.59897256    -0.66300
O1715       O  0.66578147  0.90610344  0.89866862    -0.85600
C1716       C  0.66851306  0.87292311  0.59262074     0.86600
C1717       C  0.57375327  0.85833832  0.61597910     1.08200
H1718       H  0.66362951  0.89787052  0.00429682     0.40000
O1719       O  0.64060863  0.89285633  0.98935755    -1.08300
O1720       O  0.60560484  0.85656671  0.93025274    -0.64900
Ni1721     Ni  0.64564448  0.85527750  0.97813153     1.26300
O1722       O  0.64842886  0.89083734  0.56581539    -0.65200
O1723       O  0.68003826  0.86282387  0.92997053    -0.77400
C1724       C  0.67481126  0.80682716  0.50088250     0.86000
O1725       O  0.65247142  0.81718002  0.97136301    -0.64600
Ni1726     Ni  0.63065368  0.92080967  0.93677861     1.27400
Ni1727     Ni  0.60226699  0.88720376  0.52867780     1.26100
H1728       H  0.58943682  0.84254962  0.50781546     0.40500
C1729       C  0.50899355  0.65445290  0.69439657     0.03800
C1730       C  0.98023607  0.62946024  0.71658558     0.03700
C1731       C  0.96802716  0.62137229  0.76149599    -0.16800
C1732       C  0.99109158  0.62205805  0.80230555     0.03800
C1733       C  0.52459541  0.64573657  0.77959482     0.03700
C1734       C  0.53405136  0.64578791  0.73279524    -0.16800
H1735       H  0.56133566  0.63922518  0.72608480     0.05800
H1736       H  0.94016898  0.61441837  0.76475464     0.05800
C1737       C  0.52517568  0.84699420  0.73586449     0.03800
C1738       C  0.98620207  0.86022353  0.73164599     0.03700
C1739       C  0.96840406  0.86371004  0.77275576    -0.16800
C1740       C  0.98489999  0.85552012  0.81795256     0.03800
C1741       C  0.52208823  0.84434242  0.82218266     0.03700
C1742       C  0.53983240  0.83821925  0.78205470    -0.16800
H1743       H  0.56713479  0.82922099  0.78682872     0.05800
H1744       H  0.94157276  0.87351562  0.76946406     0.05800
C1745       C  0.76492051  0.88794877  0.69494111     0.03800
C1746       C  0.72832000  0.89840536  0.69078457     0.03700
C1747       C  0.71158692  0.90327173  0.73238261    -0.16800
C1748       C  0.72871154  0.89579918  0.77792105     0.03800
C1749       C  0.76474521  0.88496700  0.78143048     0.03700
C1750       C  0.78228247  0.88137785  0.74028883    -0.16800
H1751       H  0.80991682  0.87295615  0.74368631     0.05800
H1752       H  0.68366578  0.91104959  0.72944988     0.05800
C1753       C  0.73124524  0.62080460  0.70945925     0.03800
C1754       C  0.76826941  0.61227919  0.71280909     0.03700
C1755       C  0.78943908  0.61220174  0.75589586    -0.16800
C1756       C  0.77445755  0.62139870  0.79526484     0.03800
C1757       C  0.73712710  0.62869749  0.79213838     0.03700
C1758       C  0.71594104  0.62851167  0.74953830    -0.16800
H1759       H  0.68736229  0.63471140  0.74745422     0.05800
H1760       H  0.81831590  0.60699931  0.75758335     0.05800
C1761       C  0.70213198  0.88029012  0.61913547    -0.15000
C1762       C  0.70416119  0.90104693  0.64596549    -0.30100
H1763       H  0.72163658  0.86339915  0.62709704     0.14100
H1764       H  0.68177555  0.91601649  0.64215894     0.14600
C1765       C  0.70749096  0.89930905  0.82018038    -0.15000
C1766       C  0.70749482  0.88066212  0.85950713    -0.30100
H1767       H  0.68875585  0.91686234  0.81684647     0.14100
H1768       H  0.72371213  0.86183548  0.86160806     0.14600
C1769       C  0.55007619  0.86139266  0.65601970    -0.15000
C1770       C  0.54733730  0.84242275  0.69446809    -0.30100
H1771       H  0.53579748  0.88102921  0.65477149     0.14100
H1772       H  0.56403633  0.82376209  0.69759197     0.14600
C1773       C  0.55415853  0.87029080  0.87718934    -0.15000
C1774       C  0.54564475  0.84525538  0.86573061    -0.30100
H1775       H  0.53938284  0.88822958  0.85865481     0.14100
H1776       H  0.56217347  0.82730886  0.88028019     0.14600
C1777       C  0.79421248  0.89844352  0.85429764    -0.15000
C1778       C  0.78619086  0.87854123  0.82703916    -0.30100
H1779       H  0.78395879  0.91932209  0.84328497     0.14100
H1780       H  0.79980035  0.85850940  0.83475380     0.14600
C1781       C  0.81102141  0.89480903  0.63362543    -0.15000
C1782       C  0.78473399  0.87957732  0.65480895    -0.30100
H1783       H  0.81479287  0.91601422  0.64070814     0.14100
H1784       H  0.78195036  0.85816938  0.64848672     0.14600
C1785       C  0.96671311  0.86434843  0.85936738    -0.15000
C1786       C  0.93796828  0.85105880  0.87876433    -0.30100
H1787       H  0.97401042  0.88445013  0.86952979     0.14100
H1788       H  0.93082533  0.83081158  0.86913140     0.14600
C1789       C  0.95659047  0.84862541  0.65890259    -0.15000
C1790       C  0.96555729  0.86808658  0.68636901    -0.30100
H1791       H  0.96586673  0.82743653  0.66940414     0.14100
H1792       H  0.95293688  0.88850641  0.67936844     0.14600
C1793       C  0.78682372  0.60488681  0.67187326    -0.15000
C1794       C  0.78951161  0.62304014  0.63307204    -0.30100
H1795       H  0.80380568  0.58631265  0.67738084     0.14100
H1796       H  0.77539717  0.64285362  0.62981586     0.14600
C1797       C  0.82571831  0.61200825  0.85810996    -0.15000
C1798       C  0.79832952  0.62820439  0.83631970    -0.30100
H1799       H  0.83004543  0.59143345  0.84845625     0.14100
H1800       H  0.79273014  0.64778948  0.84922715     0.14600
C1801       C  0.95630072  0.62267425  0.67600366    -0.15000
C1802       C  0.94080097  0.64109691  0.64124112    -0.30100
H1803       H  0.94833802  0.60118884  0.67822946     0.14100
H1804       H  0.94735593  0.66282685  0.63976797     0.14600
C1805       C  0.97485083  0.61738668  0.84834235    -0.15000
C1806       C  0.97394799  0.63817214  0.87504981    -0.30100
H1807       H  0.95659086  0.60006539  0.85456907     0.14100
H1808       H  0.98841101  0.65708954  0.86480043     0.14600
C1809       C  0.71822790  0.63311835  0.83436215    -0.15000
C1810       C  0.71809983  0.61242664  0.86950785    -0.30100
H1811       H  0.69828431  0.64988954  0.83206788     0.14100
H1812       H  0.73436382  0.59386945  0.86809725     0.14600
C1813       C  0.68229994  0.61033052  0.64963703    -0.15000
C1814       C  0.70952692  0.62644990  0.66380470    -0.30100
H1815       H  0.67847144  0.58994574  0.66833142     0.14100
H1816       H  0.71333150  0.64656187  0.64408621     0.14600
C1817       C  0.55069285  0.63229099  0.81777761    -0.15000
C1818       C  0.56536676  0.64488648  0.85400580    -0.30100
H1819       H  0.56024449  0.61168925  0.81343557     0.14100
H1820       H  0.55784903  0.66617160  0.85668636     0.14600
C1821       C  0.52244973  0.65861264  0.64676514    -0.15000
C1822       C  0.53284921  0.63709160  0.62578287    -0.30100
H1823       H  0.52981400  0.67944942  0.63328594     0.14100
H1824       H  0.52500080  0.61640852  0.63961615     0.14600
loop_ 
_geom_bond_atom_site_label_1 
_geom_bond_atom_site_label_2 
_geom_bond_distance 
_geom_bond_site_symmetry_2 
_ccdc_geom_bond_type 
O1           Ni9   1.940       .  S
O1           C11   1.283       .  A
O2           Ni9   1.935       .  S
O2          C240   1.282       .  A
O3           Ni9   1.926       .  S
O3           C13   1.284       .  A
O4           Ni9   1.932       .  S
O4          C242   1.286       .  A
O5          Ni10   1.906       .  S
O5           C14   1.278       .  A
O6          Ni10   1.913       .  S
O6          C241   1.278       .  A
O7          Ni10   1.902       .  S
O7           C12   1.281       .  A
O8          Ni10   1.897       .  S
O8          C239   1.279       .  A
Ni9        Ni238   2.390       .  S
Ni10       Ni237   2.392   1_554  S
C11         O236   1.282       .  A
C11         C267   1.476       .  S
C12         O230   1.280   1_554  A
C12         C319   1.464       .  S
C13         O234   1.276       .  A
C13         C293   1.463       .  S
C14         O232   1.284   1_554  A
C14         C128   1.469       .  S
O15        Ni479   1.892       .  S
O15         C253   1.277       .  A
O16        Ni935   1.904   1_455  S
O16         C254   1.280       .  A
O17       Ni1391   1.901   1_455  S
O17         C255   1.276       .  A
O18         Ni23   1.899       .  S
O18         C256   1.276       .  A
O19       Ni1392   1.925   1_545  S
O19          C28   1.284       .  A
O20         Ni24   1.942       .  S
O20          C27   1.287   1_554  A
O21        Ni480   1.942   1_545  S
O21          C26   1.284       .  A
O22        Ni936   1.945       .  S
O22          C25   1.285       .  A
Ni23        O471   1.898   1_545  S
Ni23        O928   1.903       .  S
Ni23       O1385   1.895   1_545  S
Ni23      Ni1620   2.390   1_545  S
Ni24       O1387   1.930   1_455  S
Ni24        O477   1.931       .  S
Ni24        O934   1.930   1_455  S
Ni24      Ni1619   2.389   1_454  S
C25         O243   1.280   1_554  A
C25         C102   1.477   1_554  S
C26         O244   1.276   1_554  A
C26          C50   1.463       .  S
C27         O245   1.280       .  A
C27         C117   1.483       .  S
C28         O246   1.280   1_554  A
C28          C76   1.473       .  S
O29         Ni35   1.919       .  S
O29         C278   1.271       .  A
O30         Ni53   1.936       .  S
O30         C267   1.274       .  A
O31         Ni35   1.886       .  S
O31         Ni53   1.910       .  S
O31        Ni275   1.898       .  S
O31         H282   0.966       .  S
C32          O49   1.274       .  A
C32          O41   1.275       .  A
C32         C226   1.468       .  S
O33         Ni52   1.912       .  S
O33          C39   1.267       .  A
O34         Ni52   1.897       .  S
O34          C36   1.270       .  A
Ni35         O38   1.907       .  S
Ni35         O40   1.912       .  S
C36          O46   1.273       .  A
C36         C217   1.481       .  S
O37         Ni53   1.907       .  S
O37          C43   1.273       .  A
O38          C43   1.273       .  A
C39         O258   1.268   1_554  A
C39         C239   1.459       .  S
O40          C42   1.271       .  A
O41         Ni52   1.907       .  S
C42          O48   1.277       .  A
C42         C222   1.496       .  S
C43         C214   1.447       .  S
H44          O45   0.966       .  S
O45         Ni47   1.904       .  S
O45         Ni52   1.879       .  S
O45        Ni281   1.911   1_554  S
O46         Ni47   1.936       .  S
Ni47         O51   1.916       .  S
Ni47         O49   1.920       .  S
Ni47        O259   1.904   1_554  S
O48         Ni53   1.948       .  S
C50          O51   1.271       .  A
C50         O257   1.271   1_554  A
Ni53        O273   1.901       .  S
H54         O259   0.966   1_554  S
O55         Ni61   1.937       .  S
O55          C76   1.272       .  A
O56         Ni79   1.916       .  S
O56          C65   1.271       .  A
O57         Ni61   1.909       .  S
O57         Ni79   1.917       .  S
O57        Ni301   1.904   1_554  S
O57          H80   0.966       .  S
C58          O75   1.273       .  A
C58          O67   1.274       .  A
C58         C210   1.475       .  S
O59         Ni78   1.931       .  S
O59         C293   1.268       .  A
O60         Ni78   1.900       .  S
O60          C62   1.270       .  A
Ni61         O64   1.922       .  S
Ni61         O66   1.900       .  S
C62          O72   1.272       .  A
C62         C201   1.480       .  S
O63         Ni79   1.891       .  S
O63          C69   1.267       .  A
O64          C69   1.276       .  A
C65         O287   1.267   1_554  A
C65         C241   1.470       .  S
O66          C68   1.268       .  A
O67         Ni78   1.909       .  S
C68          O74   1.279       .  A
C68         C206   1.483       .  S
C69         C198   1.462       .  S
H70          O71   0.966       .  S
O71         Ni73   1.911       .  S
O71         Ni78   1.909       .  S
O71        Ni307   1.903       .  S
O72         Ni73   1.934       .  S
Ni73         O77   1.899       .  S
Ni73         O75   1.918       .  S
Ni73        O285   1.908       .  S
O74         Ni79   1.959       .  S
C76         O305   1.267   1_554  A
O77         C304   1.267       .  A
Ni79        O299   1.895   1_554  S
O81         Ni87   1.915       .  S
O81         C330   1.271       .  A
O82        Ni105   1.925       .  S
O82          C91   1.274       .  A
O83         Ni87   1.886       .  S
O83        Ni105   1.900       .  S
O83        Ni327   1.912       .  S
O83         H106   0.966       .  S
C84         O101   1.284       .  A
C84          O93   1.274       .  A
C84         C193   1.467       .  S
O85        Ni104   1.904       .  S
O85         C319   1.267       .  A
O86        Ni104   1.909       .  S
O86          C88   1.269       .  A
Ni87         O90   1.919       .  S
Ni87         O92   1.914       .  S
C88          O98   1.276       .  A
C88         C185   1.494       .  S
O89        Ni105   1.938       .  S
O89          C95   1.283       .  A
O90          C95   1.276       .  A
C91         O313   1.270       .  A
C91         C240   1.469       .  S
O92          C94   1.270       .  A
O93        Ni104   1.907       .  S
C94         O100   1.276       .  A
C94         C190   1.495       .  S
C95         C181   1.477       .  S
H96          O97   0.966       .  S
O97         Ni99   1.896       .  S
O97        Ni104   1.884       .  S
O97        Ni333   1.907   1_554  S
O98         Ni99   1.948       .  S
Ni99        O103   1.928       .  S
Ni99        O101   1.937       .  S
Ni99        O311   1.931   1_554  S
O100       Ni105   1.948       .  S
C102        O103   1.275   1_556  A
C102        O309   1.271       .  A
Ni105       O325   1.927       .  S
O107       Ni113   1.930       .  S
O107        C128   1.272       .  A
O108       Ni131   1.907       .  S
O108        C117   1.272   1_554  A
O109       Ni113   1.920       .  S
O109       Ni131   1.917       .  S
O109       Ni353   1.942   1_554  S
O109        H132   0.966       .  S
C110        O127   1.273       .  A
C110        O119   1.279       .  A
C110        C170   1.487       .  S
O111       Ni130   1.944       .  S
O111        C345   1.280       .  A
O112       Ni130   1.938       .  S
O112        C114   1.272       .  A
Ni113       O116   1.943       .  S
Ni113       O118   1.883       .  S
C114        O124   1.274       .  A
C114        C177   1.487       .  S
O115       Ni131   1.922       .  S
O115        C121   1.271       .  A
O116        C121   1.274       .  A
C117        O339   1.283       .  A
O118        C120   1.267       .  A
O119       Ni130   1.941       .  S
C120        O126   1.284       .  A
C120        C165   1.473       .  S
C121        C173   1.496       .  S
H122        O123   0.967       .  S
O123       Ni125   1.892       .  S
O123       Ni130   1.924       .  S
O123       Ni359   1.917       .  S
O124       Ni125   1.927       .  S
Ni125       O129   1.890       .  S
Ni125       O127   1.917       .  S
Ni125       O337   1.926       .  S
O126       Ni131   1.961       .  S
C128        O357   1.263   1_554  A
O129        C356   1.263       .  A
Ni131       O351   1.915   1_554  S
C133        C225   1.469       .  S
C133        C138   1.403       .  A
C133       C1046   1.404   1_455  A
C134        C205   1.498       .  S
C134        C135   1.401       .  A
C134       C1045   1.404       .  A
C135        C136   1.415       .  A
C135        H140   1.085       .  S
C136        C209   1.468       .  S
C136       C1049   1.414       .  A
C137        C221   1.488       .  S
C137        C138   1.401       .  A
C137       C1048   1.418   1_455  A
C138        H139   1.085       .  S
C141        C174   1.511       .  S
C141        C146   1.421       .  A
C141       C1054   1.423   1_455  A
C142        C194   1.480       .  S
C142        C143   1.403       .  A
C142       C1053   1.418       .  A
C143        C144   1.402       .  A
C143        H148   1.085       .  S
C144        C189   1.492       .  S
C144       C1057   1.426       .  A
C145        C178   1.485       .  S
C145        C146   1.419       .  A
C145       C1056   1.415   1_455  A
C146        H147   1.084       .  S
C149        C186   1.488       .  S
C149        C150   1.426       .  A
C149        C154   1.404       .  A
C150        C166   1.497       .  S
C150        C151   1.411       .  A
C151        C152   1.406       .  A
C151        H156   1.085       .  S
C152        C169   1.496       .  S
C152        C153   1.417       .  A
C153        C182   1.484       .  S
C153        C154   1.403       .  A
C154        H155   1.085       .  S
C157        C218   1.471       .  S
C157        C158   1.415       .  A
C157        C162   1.392       .  A
C158        C197   1.469       .  S
C158        C159   1.409       .  A
C159        C160   1.400       .  A
C159        H164   1.085       .  S
C160        C202   1.479       .  S
C160        C161   1.405       .  A
C161        C213   1.466       .  S
C161        C162   1.391       .  A
C162        H163   1.086       .  S
C165        C166   1.339       .  D
C165        H167   1.082       .  S
C166        H168   1.088       .  S
C169        C170   1.349       .  D
C169        H171   1.087       .  S
C170        H172   1.086       .  S
C173        C174   1.356       .  D
C173        H175   1.085       .  S
C174        H176   1.086       .  S
C177        C178   1.353       .  D
C177        H179   1.088       .  S
C178        H180   1.087       .  S
C181        C182   1.339       .  D
C181        H183   1.088       .  S
C182        H184   1.087       .  S
C185        C186   1.351       .  D
C185        H187   1.086       .  S
C186        H188   1.086       .  S
C189        C190   1.352       .  D
C189        H191   1.086       .  S
C190        H192   1.086       .  S
C193        C194   1.336       .  D
C193        H195   1.087       .  S
C194        H196   1.087       .  S
C197        C198   1.338       .  D
C197        H199   1.087       .  S
C198        H200   1.087       .  S
C201        C202   1.343       .  D
C201        H203   1.086       .  S
C202        H204   1.087       .  S
C205        C206   1.348       .  D
C205        H207   1.086       .  S
C206        H208   1.087       .  S
C209        C210   1.343       .  D
C209        H211   1.087       .  S
C210        H212   1.087       .  S
C213        C214   1.334       .  D
C213        H215   1.088       .  S
C214        H216   1.088       .  S
C217        C218   1.345       .  D
C217        H219   1.086       .  S
C218        H220   1.087       .  S
C221        C222   1.351       .  D
C221        H223   1.086       .  S
C222        H224   1.086       .  S
C225        C226   1.338       .  D
C225        H227   1.087       .  S
C226        H228   1.087       .  S
O229       Ni237   1.923       .  S
O229        C239   1.280   1_556  A
O230       Ni237   1.927       .  S
O231       Ni237   1.925       .  S
O231        C241   1.285   1_556  A
O232       Ni237   1.930       .  S
O233       Ni238   1.903       .  S
O233        C242   1.276       .  A
O234       Ni238   1.899       .  S
O235       Ni238   1.901       .  S
O235        C240   1.280       .  A
O236       Ni238   1.905       .  S
C242        C356   1.468       .  S
O243       Ni707   1.902       .  S
O244      Ni1163   1.882   1_545  S
O245      Ni1619   1.917   1_455  S
O246       Ni251   1.917       .  S
O247      Ni1620   1.923   1_545  S
O247        C256   1.284       .  A
O248       Ni252   1.927       .  S
O248        C255   1.285       .  A
O249       Ni708   1.941   1_545  S
O249        C254   1.284       .  A
O250      Ni1164   1.943       .  S
O250        C253   1.285       .  A
Ni251       O699   1.893   1_545  S
Ni251      O1156   1.887       .  S
Ni251      O1613   1.910   1_545  S
Ni251     Ni1392   2.389   1_546  S
Ni252      O1615   1.921   1_455  S
Ni252       O705   1.934       .  S
Ni252      O1162   1.932   1_455  S
Ni252     Ni1391   2.392   1_455  S
C253        C330   1.468       .  S
C254        C278   1.476       .  S
C255        C345   1.464       .  S
C256        C304   1.460       .  S
O257       Ni263   1.912       .  S
O258       Ni281   1.911       .  S
O259       Ni263   1.874       .  S
O259       Ni281   1.895       .  S
C260        O277   1.272       .  A
C260        O269   1.275       .  A
C260        C454   1.460       .  S
O261       Ni280   1.910       .  S
O261        C267   1.266       .  A
O262       Ni280   1.894       .  S
O262        C264   1.268       .  A
Ni263       O266   1.912       .  S
Ni263       O268   1.906       .  S
C264        O274   1.278       .  A
C264        C445   1.489       .  S
O265       Ni281   1.914       .  S
O265        C271   1.277       .  A
O266        C271   1.276       .  A
O268        C270   1.269       .  A
O269       Ni280   1.898       .  S
C270        O276   1.269       .  A
C270        C450   1.479       .  S
C271        C442   1.453       .  S
H272        O273   0.966       .  S
O273       Ni275   1.913       .  S
O273       Ni280   1.882       .  S
O274       Ni275   1.953       .  S
Ni275       O279   1.929       .  S
Ni275       O277   1.906       .  S
O276       Ni281   1.928       .  S
C278        O279   1.274       .  A
O283       Ni289   1.925       .  S
O283        C304   1.269       .  A
O284       Ni307   1.895       .  S
O284        C293   1.265       .  A
O285       Ni289   1.911       .  S
O285       Ni307   1.907       .  S
O285        H308   0.966       .  S
C286        O303   1.270       .  A
C286        O295   1.274       .  A
C286        C438   1.460       .  S
O287       Ni306   1.921       .  S
O288       Ni306   1.903       .  S
O288        C290   1.269       .  A
Ni289       O292   1.917       .  S
Ni289       O294   1.902       .  S
C290        O300   1.275       .  A
C290        C429   1.487       .  S
O291       Ni307   1.906       .  S
O291        C297   1.270       .  A
O292        C297   1.274       .  A
O294        C296   1.270       .  A
O295       Ni306   1.901       .  S
C296        O302   1.273       .  A
C296        C434   1.484       .  S
C297        C426   1.470       .  S
H298        O299   0.966   1_554  S
O299       Ni301   1.911       .  S
O299       Ni306   1.903       .  S
O300       Ni301   1.944       .  S
Ni301       O305   1.906       .  S
Ni301       O303   1.901       .  S
O302       Ni307   1.938       .  S
O309       Ni315   1.918       .  S
O310       Ni333   1.926       .  S
O310        C319   1.274   1_556  A
O311       Ni315   1.892       .  S
O311       Ni333   1.915       .  S
O311        H334   0.966       .  S
C312        O329   1.275       .  A
C312        O321   1.273       .  A
C312        C421   1.475       .  S
O313       Ni332   1.912       .  S
O314       Ni332   1.908       .  S
O314        C316   1.271       .  A
Ni315       O318   1.924       .  S
Ni315       O320   1.903       .  S
C316        O326   1.280       .  A
C316        C413   1.493       .  S
O317       Ni333   1.922       .  S
O317        C323   1.274       .  A
O318        C323   1.274       .  A
O320        C322   1.270       .  A
O321       Ni332   1.920       .  S
C322        O328   1.281       .  A
C322        C418   1.493       .  S
C323        C409   1.477       .  S
H324        O325   0.966       .  S
O325       Ni327   1.907       .  S
O325       Ni332   1.891       .  S
O326       Ni327   1.951       .  S
Ni327       O331   1.921       .  S
Ni327       O329   1.925       .  S
O328       Ni333   1.954       .  S
C330        O331   1.273       .  A
O335       Ni341   1.949       .  S
O335        C356   1.280       .  A
O336       Ni359   1.890       .  S
O336        C345   1.264       .  A
O337       Ni341   1.932       .  S
O337       Ni359   1.900       .  S
O337        H360   0.966       .  S
C338        O355   1.275       .  A
C338        O347   1.282       .  A
C338        C398   1.494       .  S
O339       Ni358   1.955       .  S
O340       Ni358   1.932       .  S
O340        C342   1.272       .  A
Ni341       O344   1.952       .  S
Ni341       O346   1.929       .  S
C342        O352   1.267       .  A
C342        C405   1.476       .  S
O343       Ni359   1.916       .  S
O343        C349   1.273       .  A
O344        C349   1.279       .  A
O346        C348   1.272       .  A
O347       Ni358   1.961       .  S
C348        O354   1.271       .  A
C348        C393   1.478       .  S
C349        C401   1.493       .  S
H350        O351   0.966       .  S
O351       Ni353   1.894       .  S
O351       Ni358   1.922       .  S
O352       Ni353   1.915       .  S
Ni353       O357   1.901       .  S
Ni353       O355   1.916       .  S
O354       Ni359   1.921       .  S
C361        C453   1.456       .  S
C361       C1274   1.404   1_455  A
C361        C366   1.400       .  A
C362        C433   1.477       .  S
C362       C1273   1.406       .  A
C362        C363   1.393       .  A
C363        C364   1.402       .  A
C363        H368   1.085       .  S
C364        C437   1.458       .  S
C364       C1277   1.407       .  A
C365        C449   1.475       .  S
C365       C1276   1.408   1_455  A
C365        C366   1.393       .  A
C366        H367   1.085       .  S
C369        C402   1.509       .  S
C369       C1282   1.420   1_455  A
C369        C374   1.415       .  A
C370        C422   1.484       .  S
C370       C1281   1.421       .  A
C370        C371   1.402       .  A
C371        C372   1.400       .  A
C371        H376   1.085       .  S
C372        C417   1.490       .  S
C372       C1285   1.413       .  A
C373        C406   1.476       .  S
C373       C1284   1.415   1_455  A
C373        C374   1.417       .  A
C374        H375   1.084       .  S
C377        C414   1.493       .  S
C377        C378   1.415       .  A
C377        C382   1.400       .  A
C378        C394   1.481       .  S
C378        C379   1.417       .  A
C379        C380   1.417       .  A
C379        H384   1.084       .  S
C380        C397   1.510       .  S
C380        C381   1.421       .  A
C381        C410   1.483       .  S
C381        C382   1.403       .  A
C382        H383   1.085       .  S
C385        C446   1.481       .  S
C385        C386   1.416       .  A
C385        C390   1.398       .  A
C386        C425   1.475       .  S
C386        C387   1.411       .  A
C387        C388   1.401       .  A
C387        H392   1.085       .  S
C388        C430   1.487       .  S
C388        C389   1.408       .  A
C389        C441   1.473       .  S
C389        C390   1.401       .  A
C390        H391   1.085       .  S
C393        C394   1.345       .  D
C393        H395   1.088       .  S
C394        H396   1.085       .  S
C397        C398   1.355       .  D
C397        H399   1.086       .  S
C398        H400   1.085       .  S
C401        C402   1.354       .  D
C401        H403   1.085       .  S
C402        H404   1.086       .  S
C405        C406   1.341       .  D
C405        H407   1.087       .  S
C406        H408   1.085   1_455  S
C409        C410   1.345       .  D
C409        H411   1.087       .  S
C410        H412   1.087       .  S
C413        C414   1.356       .  D
C413        H415   1.084       .  S
C414        H416   1.086       .  S
C417        C418   1.356       .  D
C417        H419   1.086       .  S
C418        H420   1.084       .  S
C421        C422   1.345       .  D
C421        H423   1.087       .  S
C422        H424   1.087       .  S
C425        C426   1.344       .  D
C425        H427   1.087       .  S
C426        H428   1.085       .  S
C429        C430   1.347       .  D
C429        H431   1.086       .  S
C430        H432   1.087       .  S
C433        C434   1.343       .  D
C433        H435   1.086       .  S
C434        H436   1.086       .  S
C437        C438   1.338       .  D
C437        H439   1.087       .  S
C438        H440   1.084       .  S
C441        C442   1.338       .  D
C441        H443   1.088       .  S
C442        H444   1.087       .  S
C445        C446   1.351       .  D
C445        H447   1.086       .  S
C446        H448   1.086       .  S
C449        C450   1.341       .  D
C449        H451   1.086       .  S
C450        H452   1.086       .  S
C453        C454   1.338       .  D
C453        H455   1.087       .  S
C454        H456   1.085       .  S
O457       Ni465   1.939       .  S
O457        C467   1.284       .  A
O458       Ni465   1.942       .  S
O458        C696   1.284       .  A
O459       Ni465   1.917       .  S
O459        C469   1.284       .  A
O460       Ni465   1.920       .  S
O460        C698   1.281       .  A
O461       Ni466   1.911       .  S
O461        C470   1.282       .  A
O462       Ni466   1.919       .  S
O462        C697   1.280   1_554  A
O463       Ni466   1.900       .  S
O463        C468   1.279   1_554  A
O464       Ni466   1.889       .  S
O464        C695   1.276   1_554  A
Ni465      Ni694   2.391       .  S
Ni466      Ni693   2.388   1_554  S
C467        O692   1.278       .  A
C467        C723   1.469       .  S
C468        O686   1.287       .  A
C468        C775   1.482   1_556  S
C469        O690   1.277       .  A
C469        C749   1.464       .  S
C470        O688   1.282   1_554  A
C470        C584   1.472       .  S
O471        C709   1.280       .  A
O472      Ni1391   1.900   1_455  S
O472        C710   1.280       .  A
O473       Ni935   1.903   1_465  S
O473        C711   1.279       .  A
O474       Ni479   1.908       .  S
O474        C712   1.279       .  A
O475       Ni936   1.925       .  S
O475        C484   1.284       .  A
O476       Ni480   1.930       .  S
O476        C483   1.282       .  A
O477        C482   1.281       .  A
O478      Ni1392   1.947       .  S
O478        C481   1.286       .  A
Ni479      O1384   1.892       .  S
Ni479       O929   1.904       .  S
Ni479     Ni1164   2.391       .  S
Ni480       O931   1.924   1_465  S
Ni480      O1390   1.945   1_455  S
Ni480     Ni1163   2.390   1_554  S
C481        O699   1.277   1_554  A
C481        C558   1.471       .  S
C482        O700   1.281   1_554  A
C482        C506   1.469       .  S
C483        O701   1.281   1_554  A
C483        C573   1.469       .  S
C484        O702   1.279   1_554  A
C484        C532   1.471       .  S
O485       Ni491   1.914       .  S
O485        C734   1.270       .  A
O486       Ni509   1.916       .  S
O486        C723   1.269       .  A
O487       Ni491   1.886       .  S
O487       Ni509   1.899       .  S
O487       Ni731   1.901       .  S
O487        H738   0.966       .  S
C488        O505   1.274       .  A
C488        O497   1.277       .  A
C488        C682   1.473       .  S
O489       Ni508   1.920       .  S
O489        C495   1.270       .  A
O490       Ni508   1.894       .  S
O490        C492   1.268       .  A
Ni491       O494   1.903       .  S
Ni491       O496   1.909       .  S
C492        O502   1.275       .  A
C492        C673   1.477       .  S
O493       Ni509   1.920       .  S
O493        C499   1.277       .  A
O494        C499   1.273       .  A
C495        O714   1.268   1_554  A
C495        C695   1.471   1_554  S
O496        C498   1.270       .  A
O497       Ni508   1.910       .  S
C498        O504   1.270       .  A
C498        C678   1.478       .  S
C499        C670   1.450       .  S
H500        O501   0.966   1_556  S
O501       Ni737   1.907   1_554  S
O501       Ni503   1.915       .  S
O501       Ni508   1.884       .  S
O502       Ni503   1.944       .  S
Ni503       O507   1.927       .  S
Ni503       O505   1.917       .  S
Ni503       O715   1.908   1_554  S
O504       Ni509   1.930       .  S
C506        O713   1.268   1_554  A
C506        O507   1.273       .  A
Ni509       O729   1.913       .  S
H510        O715   0.966   1_554  S
O511       Ni517   1.932       .  S
O511        C532   1.271       .  A
O512       Ni535   1.911       .  S
O512        C521   1.266   1_554  A
O513       Ni517   1.917       .  S
O513       Ni535   1.916       .  S
O513       Ni757   1.912   1_554  S
O513        H536   0.966       .  S
C514        O531   1.269       .  A
C514        O523   1.276       .  A
C514        C666   1.464       .  S
O515       Ni534   1.921       .  S
O515        C749   1.269       .  A
O516       Ni534   1.902       .  S
O516        C518   1.268       .  A
Ni517       O520   1.925       .  S
Ni517       O522   1.900       .  S
C518        O528   1.272       .  A
C518        C657   1.481       .  S
O519       Ni535   1.895       .  S
O519        C525   1.267       .  A
O520        C525   1.274       .  A
C521        O743   1.269       .  A
C521        C697   1.473       .  S
O522        C524   1.270       .  A
O523       Ni534   1.914       .  S
C524        O530   1.273       .  A
C524        C662   1.480       .  S
C525        C654   1.467       .  S
H526        O527   0.966       .  S
O527       Ni763   1.905       .  S
O527       Ni529   1.904       .  S
O527       Ni534   1.903       .  S
O528       Ni529   1.936       .  S
Ni529       O533   1.895       .  S
Ni529       O531   1.900       .  S
Ni529       O741   1.901       .  S
O530       Ni535   1.937       .  S
C532        O761   1.269   1_554  A
O533        C760   1.263       .  A
Ni535       O755   1.902   1_554  S
O537       Ni543   1.904       .  S
O537        C786   1.266       .  A
O538       Ni561   1.937       .  S
O538        C547   1.274       .  A
O539       Ni543   1.888       .  S
O539       Ni561   1.906       .  S
O539       Ni783   1.911       .  S
O539        H562   0.966       .  S
C540        O557   1.272       .  A
C540        O549   1.278       .  A
C540        C649   1.466       .  S
O541       Ni560   1.922       .  S
O541        C775   1.272       .  A
O542       Ni560   1.910       .  S
O542        C544   1.269       .  A
Ni543       O546   1.910       .  S
Ni543       O548   1.911       .  S
C544        O554   1.279       .  A
C544        C641   1.494       .  S
O545       Ni561   1.896       .  S
O545        C551   1.274       .  A
O546        C551   1.273       .  A
C547        O769   1.266       .  A
C547        C696   1.471       .  S
O548        C550   1.270       .  A
O549       Ni560   1.930       .  S
C550        O556   1.277       .  A
C550        C646   1.492       .  S
C551        C637   1.448       .  S
H552        O553   0.966       .  S
O553       Ni789   1.919   1_554  S
O553       Ni555   1.909       .  S
O553       Ni560   1.895       .  S
O554       Ni555   1.954       .  S
Ni555       O559   1.924       .  S
Ni555       O557   1.899       .  S
Ni555       O767   1.908   1_554  S
O556       Ni561   1.946       .  S
C558        O765   1.270   1_554  A
C558        O559   1.270       .  A
Ni561       O781   1.897       .  S
O563       Ni569   1.923       .  S
O563        C584   1.271       .  A
O564       Ni587   1.912       .  S
O564        C573   1.268       .  A
O565       Ni569   1.921       .  S
O565       Ni587   1.910       .  S
O565       Ni809   1.940   1_554  S
O565        H588   0.966       .  S
C566        O583   1.284       .  A
C566        O575   1.278       .  A
C566        C626   1.494       .  S
O567       Ni586   1.933       .  S
O567        C801   1.278       .  A
O568       Ni586   1.928       .  S
O568        C570   1.270       .  A
Ni569       O572   1.946       .  S
Ni569       O574   1.875       .  S
C570        O580   1.267       .  A
C570        C633   1.472       .  S
O571       Ni587   1.915       .  S
O571        C577   1.272       .  A
O572        C577   1.275       .  A
C573        O795   1.268   1_554  A
O574        C576   1.262       .  A
O575       Ni586   1.936       .  S
C576        O582   1.277       .  A
C576        C621   1.453       .  S
C577        C629   1.491       .  S
H578        O579   0.967       .  S
O579       Ni815   1.914       .  S
O579       Ni581   1.893       .  S
O579       Ni586   1.905       .  S
O580       Ni581   1.926       .  S
Ni581       O585   1.906       .  S
Ni581       O583   1.946       .  S
Ni581       O793   1.955       .  S
O582       Ni587   1.931       .  S
C584        O813   1.269   1_554  A
O585        C812   1.267       .  A
Ni587       O807   1.924   1_554  S
C589        C681   1.466       .  S
C589       C1502   1.406   1_455  A
C589        C594   1.403       .  A
C590        C661   1.473       .  S
C590       C1501   1.407       .  A
C590        C591   1.396       .  A
C591        C592   1.402       .  A
C591        H596   1.085       .  S
C592        C665   1.464       .  S
C592       C1505   1.409       .  A
C593        C677   1.483       .  S
C593       C1504   1.409   1_455  A
C593        C594   1.398       .  A
C594        H595   1.085       .  S
C597        C630   1.511       .  S
C597       C1510   1.414   1_455  A
C597        C602   1.414       .  A
C598        C650   1.472       .  S
C598       C1509   1.416       .  A
C598        C599   1.400       .  A
C599        C600   1.397       .  A
C599        H604   1.085       .  S
C600        C645   1.490       .  S
C600       C1513   1.413       .  A
C601        C634   1.475       .  S
C601       C1512   1.412   1_455  A
C601        C602   1.418       .  A
C602        H603   1.084       .  S
C605        C642   1.499       .  S
C605        C606   1.415       .  A
C605        C610   1.397       .  A
C606        C622   1.462       .  S
C606        C607   1.409       .  A
C607        C608   1.405       .  A
C607        H612   1.082       .  S
C608        C625   1.518       .  S
C608        C609   1.412       .  A
C609        C638   1.453       .  S
C609        C610   1.406       .  A
C610        H611   1.085       .  S
C613        C674   1.479       .  S
C613        C614   1.415       .  A
C613        C618   1.399       .  A
C614        C653   1.474       .  S
C614        C615   1.405       .  A
C615        C616   1.400       .  A
C615        H620   1.085       .  S
C616        C658   1.481       .  S
C616        C617   1.410       .  A
C617        C669   1.477       .  S
C617        C618   1.401       .  A
C618        H619   1.085       .  S
C621        C622   1.330       .  D
C621        H623   1.089       .  S
C622        H624   1.086       .  S
C625        C626   1.349       .  D
C625        H627   1.086       .  S
C626        H628   1.084       .  S
C629        C630   1.358       .  D
C629        H631   1.085       .  S
C630        H632   1.086       .  S
C633        C634   1.341       .  D
C633        H635   1.087       .  S
C634        H636   1.086   1_455  S
C637        C638   1.335       .  D
C637        H639   1.087       .  S
C638        H640   1.088       .  S
C641        C642   1.352       .  D
C641        H643   1.086       .  S
C642        H644   1.085       .  S
C645        C646   1.353       .  D
C645        H647   1.086       .  S
C646        H648   1.086       .  S
C649        C650   1.344       .  D
C649        H651   1.087       .  S
C650        H652   1.087       .  S
C653        C654   1.341       .  D
C653        H655   1.087       .  S
C654        H656   1.084       .  S
C657        C658   1.344       .  D
C657        H659   1.087       .  S
C658        H660   1.087       .  S
C661        C662   1.342       .  D
C661        H663   1.086       .  S
C662        H664   1.087       .  S
C665        C666   1.338       .  D
C665        H667   1.087       .  S
C666        H668   1.086       .  S
C669        C670   1.338       .  D
C669        H671   1.089       .  S
C670        H672   1.085       .  S
C673        C674   1.346       .  D
C673        H675   1.086       .  S
C674        H676   1.085       .  S
C677        C678   1.342       .  D
C677        H679   1.088       .  S
C678        H680   1.085       .  S
C681        C682   1.341       .  D
C681        H683   1.087       .  S
C682        H684   1.087       .  S
O685       Ni693   1.947       .  S
O685        C695   1.286       .  A
O686       Ni693   1.955       .  S
O687       Ni693   1.924       .  S
O687        C697   1.283       .  A
O688       Ni693   1.930       .  S
O689       Ni694   1.901       .  S
O689        C698   1.279       .  A
O690       Ni694   1.910       .  S
O691       Ni694   1.897       .  S
O691        C696   1.279       .  A
O692       Ni694   1.895       .  S
C698        C812   1.460       .  S
O700      Ni1619   1.905   1_455  S
O701      Ni1163   1.905       .  S
O702       Ni707   1.914       .  S
O703      Ni1164   1.915       .  S
O703        C712   1.281       .  A
O704       Ni708   1.938       .  S
O704        C711   1.284       .  A
O705        C710   1.282       .  A
O706      Ni1620   1.941       .  S
O706        C709   1.283       .  A
Ni707      O1612   1.901       .  S
Ni707      O1157   1.915       .  S
Ni707      Ni936   2.388   1_556  S
Ni708      O1159   1.932   1_465  S
Ni708      O1618   1.940   1_455  S
Ni708      Ni935   2.389   1_465  S
C709        C786   1.471       .  S
C710        C734   1.468       .  S
C711        C801   1.472       .  S
C712        C760   1.461       .  S
O713       Ni719   1.913       .  S
O714       Ni737   1.920       .  S
O715       Ni719   1.888       .  S
O715       Ni737   1.906       .  S
C716        O733   1.274       .  A
C716        O725   1.276       .  A
C716        C910   1.472       .  S
O717       Ni736   1.920       .  S
O717        C723   1.270       .  A
O718       Ni736   1.892       .  S
O718        C720   1.269       .  A
Ni719       O722   1.909       .  S
Ni719       O724   1.908       .  S
C720        O730   1.277       .  A
C720        C901   1.489       .  S
O721       Ni737   1.905       .  S
O721        C727   1.273       .  A
O722        C727   1.273       .  A
O724        C726   1.270       .  A
O725       Ni736   1.914       .  S
C726        O732   1.270       .  A
C726        C906   1.476       .  S
C727        C898   1.452       .  S
H728        O729   0.966       .  S
O729       Ni731   1.907       .  S
O729       Ni736   1.883       .  S
O730       Ni731   1.949       .  S
Ni731       O735   1.922       .  S
Ni731       O733   1.916       .  S
O732       Ni737   1.927       .  S
C734        O735   1.273       .  A
O739       Ni745   1.928       .  S
O739        C760   1.269       .  A
O740       Ni763   1.908       .  S
O740        C749   1.270       .  A
O741       Ni745   1.903       .  S
O741       Ni763   1.911       .  S
O741        H764   0.966       .  S
C742        O759   1.273       .  A
C742        O751   1.274       .  A
C742        C894   1.474       .  S
O743       Ni762   1.932       .  S
O744       Ni762   1.903       .  S
O744        C746   1.271       .  A
Ni745       O748   1.912       .  S
Ni745       O750   1.899       .  S
C746        O756   1.273       .  A
C746        C885   1.484       .  S
O747       Ni763   1.911       .  S
O747        C753   1.272       .  A
O748        C753   1.275       .  A
O750        C752   1.267       .  A
O751       Ni762   1.907       .  S
C752        O758   1.278       .  A
C752        C890   1.480       .  S
C753        C882   1.469       .  S
H754        O755   0.966       .  S
O755       Ni757   1.917       .  S
O755       Ni762   1.911       .  S
O756       Ni757   1.936       .  S
Ni757       O761   1.908       .  S
Ni757       O759   1.916       .  S
O758       Ni763   1.955       .  S
O765       Ni771   1.917       .  S
O766       Ni789   1.938       .  S
O766        C775   1.276   1_556  A
O767       Ni771   1.894       .  S
O767       Ni789   1.909       .  S
O767        H790   0.966       .  S
C768        O785   1.279       .  A
C768        O777   1.275       .  A
C768        C877   1.449       .  S
O769       Ni788   1.904       .  S
O770       Ni788   1.907       .  S
O770        C772   1.268       .  A
Ni771       O774   1.915       .  S
Ni771       O776   1.915       .  S
C772        O782   1.275       .  A
C772        C869   1.487       .  S
O773       Ni789   1.921       .  S
O773        C779   1.280       .  A
O774        C779   1.275       .  A
O776        C778   1.270       .  A
O777       Ni788   1.906       .  S
C778        O784   1.280       .  A
C778        C874   1.500       .  S
C779        C865   1.463       .  S
H780        O781   0.966       .  S
O781       Ni783   1.903       .  S
O781       Ni788   1.881       .  S
O782       Ni783   1.946       .  S
Ni783       O787   1.937       .  S
Ni783       O785   1.907       .  S
O784       Ni789   1.956       .  S
C786        O787   1.274       .  A
O791       Ni797   1.915       .  S
O791        C812   1.269       .  A
O792       Ni815   1.912       .  S
O792        C801   1.273       .  A
O793       Ni797   1.909       .  S
O793       Ni815   1.914       .  S
O793        H816   0.965       .  S
C794        O811   1.278       .  A
C794        O803   1.273       .  A
C794        C854   1.492       .  S
O795       Ni814   1.915       .  S
O796       Ni814   1.884       .  S
O796        C798   1.265       .  A
Ni797       O800   1.934       .  S
Ni797       O802   1.884       .  S
C798        O808   1.276       .  A
C798        C861   1.461       .  S
O799       Ni815   1.932       .  S
O799        C805   1.273       .  A
O800        C805   1.273       .  A
O802        C804   1.267       .  A
O803       Ni814   1.921       .  S
C804        O810   1.285       .  A
C804        C849   1.472       .  S
C805        C857   1.497       .  S
H806        O807   0.966   1_554  S
O807       Ni809   1.906       .  S
O807       Ni814   1.910       .  S
O808       Ni809   1.935       .  S
Ni809       O813   1.908       .  S
Ni809       O811   1.937       .  S
O810       Ni815   1.958       .  S
C817        C909   1.472       .  S
C817       C1730   1.414   1_455  A
C817        C822   1.410       .  A
C818        C889   1.494       .  S
C818       C1729   1.405       .  A
C818        C819   1.400       .  A
C819        C820   1.413       .  A
C819        H824   1.085       .  S
C820        C893   1.470       .  S
C820       C1733   1.415       .  A
C821        C905   1.481       .  S
C821       C1732   1.404   1_455  A
C821        C822   1.402       .  A
C822        H823   1.084       .  S
C825        C858   1.510       .  S
C825       C1738   1.417   1_455  A
C825        C830   1.403       .  A
C826        C878   1.455       .  S
C826       C1737   1.416       .  A
C826        C827   1.404       .  A
C827        C828   1.395       .  A
C827        H832   1.085       .  S
C828        C873   1.499       .  S
C828       C1741   1.419       .  A
C829        C862   1.471       .  S
C829       C1740   1.419   1_455  A
C829        C830   1.411       .  A
C830        H831   1.085       .  S
C833        C870   1.493       .  S
C833        C834   1.423       .  A
C833        C838   1.404       .  A
C834        C850   1.489       .  S
C834        C835   1.410       .  A
C835        C836   1.407       .  A
C835        H840   1.085       .  S
C836        C853   1.499       .  S
C836        C837   1.413       .  A
C837        C866   1.471       .  S
C837        C838   1.403       .  A
C838        H839   1.085       .  S
C841        C902   1.478       .  S
C841        C842   1.413       .  A
C841        C846   1.396       .  A
C842        C881   1.465       .  S
C842        C843   1.410       .  A
C843        C844   1.399       .  A
C843        H848   1.085       .  S
C844        C886   1.479       .  S
C844        C845   1.402       .  A
C845        C897   1.467       .  S
C845        C846   1.396       .  A
C846        H847   1.085       .  S
C849        C850   1.337       .  D
C849        H851   1.087       .  S
C850        H852   1.087       .  S
C853        C854   1.357       .  D
C853        H855   1.087       .  S
C854        H856   1.086       .  S
C857        C858   1.357       .  D
C857        H859   1.085       .  S
C858        H860   1.086       .  S
C861        C862   1.336       .  D
C861        H863   1.089       .  S
C862        H864   1.086       .  S
C865        C866   1.336       .  D
C865        H867   1.087       .  S
C866        H868   1.087       .  S
C869        C870   1.351       .  D
C869        H871   1.086       .  S
C870        H872   1.084       .  S
C873        C874   1.356       .  D
C873        H875   1.086       .  S
C874        H876   1.086       .  S
C877        C878   1.329       .  D
C877        H879   1.088       .  S
C878        H880   1.087       .  S
C881        C882   1.341       .  D
C881        H883   1.086       .  S
C882        H884   1.087       .  S
C885        C886   1.343       .  D
C885        H887   1.086       .  S
C886        H888   1.087       .  S
C889        C890   1.346       .  D
C889        H891   1.086       .  S
C890        H892   1.088       .  S
C893        C894   1.344       .  D
C893        H895   1.087       .  S
C894        H896   1.086       .  S
C897        C898   1.340       .  D
C897        H899   1.089       .  S
C898        H900   1.087       .  S
C901        C902   1.350       .  D
C901        H903   1.086       .  S
C902        H904   1.087       .  S
C905        C906   1.342       .  D
C905        H907   1.088       .  S
C906        H908   1.086       .  S
C909        C910   1.343       .  D
C909        H911   1.087       .  S
C910        H912   1.087       .  S
O913       Ni921   1.945       .  S
O913        C923   1.283       .  A
O914       Ni921   1.942       .  S
O914       C1152   1.283       .  A
O915       Ni921   1.929       .  S
O915        C925   1.285       .  A
O916       Ni921   1.942       .  S
O916       C1154   1.286       .  A
O917       Ni922   1.909       .  S
O917        C926   1.280       .  A
O918       Ni922   1.918       .  S
O918       C1153   1.278       .  A
O919       Ni922   1.904       .  S
O919        C924   1.281       .  A
O920       Ni922   1.897       .  S
O920       C1151   1.279       .  A
Ni921     Ni1150   2.388       .  S
Ni922     Ni1149   2.391   1_554  S
C923       O1148   1.282       .  A
C923       C1179   1.481       .  S
C924       O1142   1.282   1_554  A
C924       C1231   1.470       .  S
C925       O1146   1.276       .  A
C925       C1205   1.466       .  S
C926       O1144   1.283   1_554  A
C926       C1040   1.468       .  S
O927      Ni1391   1.892       .  S
O927       C1165   1.280       .  A
O928       C1166   1.280       .  A
O929       C1167   1.279       .  A
O930       Ni935   1.909       .  S
O930       C1168   1.277       .  A
O931        C940   1.284       .  A
O932       Ni936   1.936       .  S
O932        C939   1.285   1_554  A
O933      Ni1392   1.949   1_545  S
O933        C938   1.286       .  A
O934        C937   1.282       .  A
Ni935      O1383   1.899   1_545  S
Ni936      O1389   1.944       .  S
C937       O1155   1.280   1_554  A
C937       C1014   1.468   1_554  S
C938       O1156   1.277   1_554  A
C938        C962   1.473       .  S
C939       O1157   1.280       .  A
C939       C1029   1.478       .  S
C940       O1158   1.279   1_554  A
C940        C988   1.469       .  S
O941       Ni947   1.917       .  S
O941       C1190   1.270       .  A
O942       Ni965   1.943       .  S
O942       C1179   1.276       .  A
O943       Ni947   1.887       .  S
O943       Ni965   1.910       .  S
O943      Ni1187   1.898       .  S
O943       H1194   0.966       .  S
C944        O961   1.272       .  A
C944        O953   1.276       .  A
C944       C1138   1.463       .  S
O945       Ni964   1.915       .  S
O945        C951   1.268       .  A
O946       Ni964   1.892       .  S
O946        C948   1.268       .  A
Ni947       O950   1.905       .  S
Ni947       O952   1.915       .  S
C948        O958   1.278       .  A
C948       C1129   1.475       .  S
O949       Ni965   1.912       .  S
O949        C955   1.277       .  A
O950        C955   1.273       .  A
C951       O1170   1.268   1_554  A
C951       C1151   1.463       .  S
O952        C954   1.272       .  A
O953       Ni964   1.909       .  S
C954        O960   1.276       .  A
C954       C1134   1.494       .  S
C955       C1126   1.448       .  S
H956        O957   0.966       .  S
O957      Ni1193   1.911   1_554  S
O957       Ni959   1.908       .  S
O957       Ni964   1.882       .  S
O958       Ni959   1.945       .  S
Ni959       O963   1.930       .  S
Ni959       O961   1.911       .  S
Ni959      O1171   1.904       .  S
O960       Ni965   1.944       .  S
C962       O1169   1.270   1_554  A
C962        O963   1.274       .  A
Ni965      O1185   1.904       .  S
H966       O1171   0.966       .  S
O967       Ni973   1.929       .  S
O967        C988   1.269       .  A
O968       Ni991   1.922       .  S
O968        C977   1.273       .  A
O969       Ni973   1.906       .  S
O969       Ni991   1.915       .  S
O969      Ni1213   1.900   1_554  S
O969        H992   0.967       .  S
C970        O987   1.271       .  A
C970        O979   1.275       .  A
C970       C1122   1.479       .  S
O971       Ni990   1.930       .  S
O971       C1205   1.268       .  A
O972       Ni990   1.893       .  S
O972        C974   1.268       .  A
Ni973       O976   1.913       .  S
Ni973       O978   1.905       .  S
C974        O984   1.278       .  A
C974       C1113   1.479       .  S
O975       Ni991   1.900       .  S
O975        C981   1.273       .  A
O976        C981   1.272       .  A
C977       O1199   1.268   1_554  A
C977       C1153   1.471       .  S
O978        C980   1.269       .  A
O979       Ni990   1.920       .  S
C980        O986   1.276       .  A
C980       C1118   1.479       .  S
C981       C1110   1.454       .  S
H982        O983   0.966       .  S
O983      Ni1219   1.913       .  S
O983       Ni985   1.916       .  S
O983       Ni990   1.914       .  S
O984       Ni985   1.947       .  S
Ni985       O989   1.912       .  S
Ni985       O987   1.913       .  S
Ni985      O1197   1.907       .  S
O986       Ni991   1.946       .  S
C988       O1217   1.267   1_554  A
O989       C1216   1.271       .  A
Ni991      O1211   1.901   1_554  S
O993       Ni999   1.899       .  S
O993       C1242   1.266       .  A
O994      Ni1017   1.930       .  S
O994       C1003   1.277       .  A
O995       Ni999   1.884       .  S
O995      Ni1017   1.900       .  S
O995      Ni1239   1.914       .  S
O995       H1018   0.966       .  S
C996       O1013   1.280       .  A
C996       O1005   1.276       .  A
C996       C1105   1.479       .  S
O997      Ni1016   1.914       .  S
O997       C1231   1.270       .  A
O998      Ni1016   1.912       .  S
O998       C1000   1.270       .  A
Ni999      O1002   1.906       .  S
Ni999      O1004   1.905       .  S
C1000      O1010   1.279       .  A
C1000      C1097   1.498       .  S
O1001     Ni1017   1.933       .  S
O1001      C1007   1.281       .  A
O1002      C1007   1.272       .  A
C1003      O1225   1.270       .  A
C1003      C1152   1.477       .  S
O1004      C1006   1.269       .  A
O1005     Ni1016   1.922       .  S
C1006      O1012   1.280       .  A
C1006      C1102   1.495       .  S
C1007      C1093   1.465       .  S
H1008      O1009   0.966       .  S
O1009     Ni1245   1.917   1_554  S
O1009     Ni1011   1.902       .  S
O1009     Ni1016   1.890       .  S
O1010     Ni1011   1.957       .  S
Ni1011     O1015   1.917       .  S
Ni1011     O1013   1.935       .  S
Ni1011     O1223   1.923   1_554  S
O1012     Ni1017   1.956       .  S
C1014      O1221   1.271       .  A
C1014      O1015   1.273   1_556  A
Ni1017     O1237   1.925       .  S
O1019     Ni1025   1.930       .  S
O1019      C1040   1.271       .  A
O1020     Ni1043   1.907       .  S
O1020      C1029   1.273   1_554  A
O1021     Ni1025   1.911       .  S
O1021     Ni1043   1.910       .  S
O1021     Ni1265   1.929   1_554  S
O1021      H1044   0.966       .  S
C1022      O1039   1.274       .  A
C1022      O1031   1.273       .  A
C1022      C1082   1.490       .  S
O1023     Ni1042   1.921       .  S
O1023      C1257   1.268       .  A
O1024     Ni1042   1.884       .  S
O1024      C1026   1.266       .  A
Ni1025     O1028   1.935       .  S
Ni1025     O1030   1.884       .  S
C1026      O1036   1.283       .  A
C1026      C1089   1.474       .  S
O1027     Ni1043   1.926       .  S
O1027      C1033   1.274       .  A
O1028      C1033   1.276       .  A
C1029      O1251   1.281       .  A
O1030      C1032   1.266       .  A
O1031     Ni1042   1.927       .  S
C1032      O1038   1.283       .  A
C1032      C1077   1.474       .  S
C1033      C1085   1.490       .  S
H1034      O1035   0.966       .  S
O1035     Ni1271   1.930       .  S
O1035     Ni1037   1.910       .  S
O1035     Ni1042   1.911       .  S
O1036     Ni1037   1.959       .  S
Ni1037     O1041   1.905       .  S
Ni1037     O1039   1.929       .  S
Ni1037     O1249   1.920       .  S
O1038     Ni1043   1.959       .  S
C1040      O1269   1.265   1_554  A
O1041      C1268   1.272       .  A
Ni1043     O1263   1.917   1_554  S
C1045      C1137   1.463       .  S
C1045      C1050   1.404       .  A
C1046      C1117   1.494       .  S
C1046      C1047   1.401       .  A
C1047      C1048   1.414       .  A
C1047      H1052   1.085       .  S
C1048      C1121   1.476       .  S
C1049      C1133   1.491       .  S
C1049      C1050   1.399       .  A
C1050      H1051   1.085       .  S
C1053      C1086   1.503       .  S
C1053      C1058   1.409       .  A
C1054      C1106   1.489       .  S
C1054      C1055   1.404       .  A
C1055      C1056   1.403       .  A
C1055      H1060   1.085       .  S
C1056      C1101   1.492       .  S
C1057      C1090   1.498       .  S
C1057      C1058   1.414       .  A
C1058      H1059   1.085       .  S
C1061      C1098   1.495       .  S
C1061      C1062   1.426       .  A
C1061      C1066   1.404       .  A
C1062      C1078   1.494       .  S
C1062      C1063   1.412       .  A
C1063      C1064   1.408       .  A
C1063      H1068   1.085       .  S
C1064      C1081   1.501       .  S
C1064      C1065   1.418       .  A
C1065      C1094   1.482       .  S
C1065      C1066   1.406       .  A
C1066      H1067   1.085       .  S
C1069      C1130   1.479       .  S
C1069      C1070   1.409       .  A
C1069      C1074   1.396       .  A
C1070      C1109   1.462       .  S
C1070      C1071   1.402       .  A
C1071      C1072   1.396       .  A
C1071      H1076   1.085       .  S
C1072      C1114   1.480       .  S
C1072      C1073   1.409       .  A
C1073      C1125   1.463       .  S
C1073      C1074   1.401       .  A
C1074      H1075   1.085       .  S
C1077      C1078   1.339       .  D
C1077      H1079   1.084       .  S
C1078      H1080   1.087       .  S
C1081      C1082   1.354       .  D
C1081      H1083   1.086       .  S
C1082      H1084   1.086       .  S
C1085      C1086   1.352       .  D
C1085      H1087   1.085       .  S
C1086      H1088   1.087       .  S
C1089      C1090   1.339       .  D
C1089      H1091   1.082       .  S
C1090      H1092   1.087       .  S
C1093      C1094   1.338       .  D
C1093      H1095   1.087       .  S
C1094      H1096   1.088       .  S
C1097      C1098   1.355       .  D
C1097      H1099   1.086       .  S
C1098      H1100   1.086       .  S
C1101      C1102   1.356       .  D
C1101      H1103   1.086       .  S
C1102      H1104   1.086       .  S
C1105      C1106   1.343       .  D
C1105      H1107   1.088       .  S
C1106      H1108   1.087       .  S
C1109      C1110   1.335       .  D
C1109      H1111   1.089       .  S
C1110      H1112   1.087       .  S
C1113      C1114   1.348       .  D
C1113      H1115   1.086       .  S
C1114      H1116   1.087       .  S
C1117      C1118   1.348       .  D
C1117      H1119   1.086       .  S
C1118      H1120   1.088       .  S
C1121      C1122   1.343       .  D
C1121      H1123   1.087       .  S
C1122      H1124   1.087       .  S
C1125      C1126   1.332       .  D
C1125      H1127   1.089       .  S
C1126      H1128   1.087       .  S
C1129      C1130   1.348       .  D
C1129      H1131   1.086       .  S
C1130      H1132   1.088       .  S
C1133      C1134   1.350       .  D
C1133      H1135   1.087       .  S
C1134      H1136   1.086       .  S
C1137      C1138   1.336       .  D
C1137      H1139   1.086       .  S
C1138      H1140   1.087       .  S
O1141     Ni1149   1.928       .  S
O1141      C1151   1.281   1_556  A
O1142     Ni1149   1.935       .  S
O1143     Ni1149   1.922       .  S
O1143      C1153   1.285   1_556  A
O1144     Ni1149   1.926       .  S
O1145     Ni1150   1.904       .  S
O1145      C1154   1.278       .  A
O1146     Ni1150   1.902       .  S
O1147     Ni1150   1.905       .  S
O1147      C1152   1.282       .  A
O1148     Ni1150   1.908       .  S
C1154      C1268   1.475       .  S
O1155     Ni1619   1.904       .  S
O1158     Ni1163   1.913   1_645  S
O1159      C1168   1.286       .  A
O1160     Ni1164   1.917       .  S
O1160      C1167   1.281       .  A
O1161     Ni1620   1.944   1_545  S
O1161      C1166   1.285       .  A
O1162      C1165   1.281       .  A
Ni1163     O1611   1.889   1_455  S
Ni1164     O1617   1.945       .  S
C1165      C1242   1.463       .  S
C1166      C1190   1.478       .  S
C1167      C1257   1.459       .  S
C1168      C1216   1.472       .  S
O1169     Ni1175   1.912       .  S
O1170     Ni1193   1.914       .  S
O1171     Ni1175   1.880   1_554  S
O1171     Ni1193   1.901   1_554  S
C1172      O1189   1.272       .  A
C1172      O1181   1.274       .  A
C1172      C1366   1.461       .  S
O1173     Ni1192   1.910       .  S
O1173      C1179   1.267       .  A
O1174     Ni1192   1.894       .  S
O1174      C1176   1.268       .  A
Ni1175     O1178   1.913       .  S
Ni1175     O1180   1.905       .  S
C1176      O1186   1.278       .  A
C1176      C1357   1.489       .  S
O1177     Ni1193   1.913       .  S
O1177      C1183   1.277       .  A
O1178      C1183   1.275       .  A
O1180      C1182   1.269       .  A
O1181     Ni1192   1.897       .  S
C1182      O1188   1.270       .  A
C1182      C1362   1.482       .  S
C1183      C1354   1.454       .  S
H1184      O1185   0.966       .  S
O1185     Ni1187   1.916       .  S
O1185     Ni1192   1.882       .  S
O1186     Ni1187   1.952       .  S
Ni1187     O1191   1.934       .  S
Ni1187     O1189   1.907       .  S
O1188     Ni1193   1.933       .  S
C1190      O1191   1.274       .  A
O1195     Ni1201   1.929       .  S
O1195      C1216   1.270       .  A
O1196     Ni1219   1.903       .  S
O1196      C1205   1.267       .  A
O1197     Ni1201   1.912       .  S
O1197     Ni1219   1.910       .  S
O1197      H1220   0.966       .  S
C1198      O1215   1.268       .  A
C1198      O1207   1.274       .  A
C1198      C1350   1.460       .  S
O1199     Ni1218   1.917       .  S
O1200     Ni1218   1.901       .  S
O1200      C1202   1.269       .  A
Ni1201     O1204   1.920       .  S
Ni1201     O1206   1.899       .  S
C1202      O1212   1.275       .  A
C1202      C1341   1.487       .  S
O1203     Ni1219   1.910       .  S
O1203      C1209   1.272       .  A
O1204      C1209   1.275       .  A
O1206      C1208   1.269       .  A
O1207     Ni1218   1.902       .  S
C1208      O1214   1.272       .  A
C1208      C1346   1.481       .  S
C1209      C1338   1.473       .  S
H1210      O1211   0.966   1_554  S
O1211     Ni1213   1.913       .  S
O1211     Ni1218   1.900       .  S
O1212     Ni1213   1.946       .  S
Ni1213     O1217   1.908       .  S
Ni1213     O1215   1.898       .  S
O1214     Ni1219   1.938       .  S
O1221     Ni1227   1.918       .  S
O1222     Ni1245   1.926       .  S
O1222      C1231   1.275   1_556  A
O1223     Ni1227   1.892       .  S
O1223     Ni1245   1.906       .  S
O1223      H1246   0.966       .  S
C1224      O1241   1.276       .  A
C1224      O1233   1.275       .  A
C1224      C1333   1.475       .  S
O1225     Ni1244   1.915       .  S
O1226     Ni1244   1.903       .  S
O1226      C1228   1.269       .  A
Ni1227     O1230   1.920       .  S
Ni1227     O1232   1.910       .  S
C1228      O1238   1.280       .  A
C1228      C1325   1.491       .  S
O1229     Ni1245   1.932       .  S
O1229      C1235   1.278       .  A
O1230      C1235   1.275       .  A
O1232      C1234   1.270       .  A
O1233     Ni1244   1.921       .  S
C1234      O1240   1.281       .  A
C1234      C1330   1.497       .  S
C1235      C1321   1.477       .  S
H1236      O1237   0.966       .  S
O1237     Ni1239   1.907       .  S
O1237     Ni1244   1.889       .  S
O1238     Ni1239   1.951       .  S
Ni1239     O1243   1.927       .  S
Ni1239     O1241   1.925       .  S
O1240     Ni1245   1.956       .  S
C1242      O1243   1.274       .  A
O1247     Ni1253   1.945       .  S
O1247      C1268   1.281       .  A
O1248     Ni1271   1.896       .  S
O1248      C1257   1.262       .  A
O1249     Ni1253   1.920       .  S
O1249     Ni1271   1.895       .  S
O1249      H1272   0.965       .  S
C1250      O1267   1.273       .  A
C1250      O1259   1.281       .  A
C1250      C1310   1.487       .  S
O1251     Ni1270   1.948       .  S
O1252     Ni1270   1.927       .  S
O1252      C1254   1.271       .  A
Ni1253     O1256   1.956       .  S
Ni1253     O1258   1.931       .  S
C1254      O1264   1.270       .  A
C1254      C1317   1.476       .  S
O1255     Ni1271   1.911       .  S
O1255      C1261   1.274       .  A
O1256      C1261   1.281       .  A
O1258      C1260   1.271       .  A
O1259     Ni1270   1.955       .  S
C1260      O1266   1.267       .  A
C1260      C1305   1.476       .  S
C1261      C1313   1.488       .  S
H1262      O1263   0.966       .  S
O1263     Ni1265   1.897       .  S
O1263     Ni1270   1.919       .  S
O1264     Ni1265   1.923       .  S
Ni1265     O1269   1.902       .  S
Ni1265     O1267   1.908       .  S
O1266     Ni1271   1.916       .  S
C1273      C1365   1.456       .  S
C1273      C1278   1.403       .  A
C1274      C1345   1.475       .  S
C1274      C1275   1.393       .  A
C1275      C1276   1.402       .  A
C1275      H1280   1.085       .  S
C1276      C1349   1.459       .  S
C1277      C1361   1.479       .  S
C1277      C1278   1.394       .  A
C1278      H1279   1.085       .  S
C1281      C1314   1.505       .  S
C1281      C1286   1.414       .  A
C1282      C1334   1.483       .  S
C1282      C1283   1.404       .  A
C1283      C1284   1.401       .  A
C1283      H1288   1.085       .  S
C1284      C1329   1.499       .  S
C1285      C1318   1.478       .  S
C1285      C1286   1.415       .  A
C1286      H1287   1.084       .  S
C1289      C1326   1.490       .  S
C1289      C1290   1.413       .  A
C1289      C1294   1.399       .  A
C1290      C1306   1.477       .  S
C1290      C1291   1.414       .  A
C1291      C1292   1.414       .  A
C1291      H1296   1.084       .  S
C1292      C1309   1.504       .  S
C1292      C1293   1.421       .  A
C1293      C1322   1.485       .  S
C1293      C1294   1.402       .  A
C1294      H1295   1.085       .  S
C1297      C1358   1.479       .  S
C1297      C1298   1.416       .  A
C1297      C1302   1.398       .  A
C1298      C1337   1.477       .  S
C1298      C1299   1.412       .  A
C1299      C1300   1.403       .  A
C1299      H1304   1.084       .  S
C1300      C1342   1.488       .  S
C1300      C1301   1.409       .  A
C1301      C1353   1.475       .  S
C1301      C1302   1.400       .  A
C1302      H1303   1.085       .  S
C1305      C1306   1.341       .  D
C1305      H1307   1.088       .  S
C1306      H1308   1.085       .  S
C1309      C1310   1.352       .  D
C1309      H1311   1.086       .  S
C1310      H1312   1.085       .  S
C1313      C1314   1.352       .  D
C1313      H1315   1.085       .  S
C1314      H1316   1.086       .  S
C1317      C1318   1.343       .  D
C1317      H1319   1.087       .  S
C1318      H1320   1.085       .  S
C1321      C1322   1.344       .  D
C1321      H1323   1.088       .  S
C1322      H1324   1.087       .  S
C1325      C1326   1.355       .  D
C1325      H1327   1.084       .  S
C1326      H1328   1.086       .  S
C1329      C1330   1.358       .  D
C1329      H1331   1.086       .  S
C1330      H1332   1.083       .  S
C1333      C1334   1.344       .  D
C1333      H1335   1.088       .  S
C1334      H1336   1.087       .  S
C1337      C1338   1.346       .  D
C1337      H1339   1.087       .  S
C1338      H1340   1.085       .  S
C1341      C1342   1.347       .  D
C1341      H1343   1.086       .  S
C1342      H1344   1.087       .  S
C1345      C1346   1.342       .  D
C1345      H1347   1.085       .  S
C1346      H1348   1.086       .  S
C1349      C1350   1.338       .  D
C1349      H1351   1.087       .  S
C1350      H1352   1.084       .  S
C1353      C1354   1.339       .  D
C1353      H1355   1.088       .  S
C1354      H1356   1.087       .  S
C1357      C1358   1.351       .  D
C1357      H1359   1.086       .  S
C1358      H1360   1.086       .  S
C1361      C1362   1.343       .  D
C1361      H1363   1.085       .  S
C1362      H1364   1.086       .  S
C1365      C1366   1.339       .  D
C1365      H1367   1.087       .  S
C1366      H1368   1.085       .  S
O1369     Ni1377   1.946       .  S
O1369      C1379   1.286       .  A
O1370     Ni1377   1.943       .  S
O1370      C1608   1.284       .  A
O1371     Ni1377   1.926       .  S
O1371      C1381   1.284       .  A
O1372     Ni1377   1.929       .  S
O1372      C1610   1.282       .  A
O1373     Ni1378   1.911       .  S
O1373      C1382   1.281       .  A
O1374     Ni1378   1.916       .  S
O1374      C1609   1.280   1_554  A
O1375     Ni1378   1.902       .  S
O1375      C1380   1.279   1_554  A
O1376     Ni1378   1.891       .  S
O1376      C1607   1.278   1_554  A
Ni1377    Ni1606   2.390       .  S
Ni1378    Ni1605   2.388   1_554  S
C1379      O1604   1.277       .  A
C1379      C1635   1.471       .  S
C1380      O1598   1.287       .  A
C1380      C1687   1.482   1_556  S
C1381      O1602   1.279       .  A
C1381      C1661   1.472       .  S
C1382      O1600   1.283   1_554  A
C1382      C1496   1.474       .  S
O1383      C1621   1.280       .  A
O1384      C1622   1.278       .  A
O1385      C1623   1.277       .  A
O1386     Ni1391   1.897       .  S
O1386      C1624   1.276       .  A
O1387      C1396   1.285       .  A
O1388     Ni1392   1.932       .  S
O1388      C1395   1.282       .  A
O1389      C1394   1.284       .  A
O1390      C1393   1.286       .  A
C1393      O1611   1.276   1_554  A
C1393      C1470   1.468       .  S
C1394      O1612   1.281   1_554  A
C1394      C1418   1.477   1_554  S
C1395      O1613   1.282   1_554  A
C1395      C1485   1.472       .  S
C1396      O1614   1.279   1_554  A
C1396      C1444   1.475       .  S
O1397     Ni1403   1.919       .  S
O1397      C1646   1.270       .  A
O1398     Ni1421   1.922       .  S
O1398      C1635   1.268       .  A
O1399     Ni1403   1.889       .  S
O1399     Ni1421   1.909       .  S
O1399     Ni1643   1.902       .  S
O1399      H1650   0.966       .  S
C1400      O1417   1.276       .  A
C1400      O1409   1.275       .  A
C1400      C1594   1.467       .  S
O1401     Ni1420   1.910       .  S
O1401      C1407   1.267   1_554  A
O1402     Ni1420   1.892       .  S
O1402      C1404   1.268       .  A
Ni1403     O1406   1.913       .  S
Ni1403     O1408   1.902       .  S
C1404      O1414   1.280       .  A
C1404      C1585   1.493       .  S
O1405     Ni1421   1.908       .  S
O1405      C1411   1.274       .  A
O1406      C1411   1.274       .  A
C1407      O1626   1.270       .  A
C1407      C1607   1.474       .  S
O1408      C1410   1.268       .  A
O1409     Ni1420   1.897       .  S
C1410      O1416   1.269       .  A
C1410      C1590   1.473       .  S
C1411      C1582   1.452       .  S
H1412      O1413   0.966   1_556  S
O1413     Ni1649   1.905   1_554  S
O1413     Ni1415   1.912       .  S
O1413     Ni1420   1.875       .  S
O1414     Ni1415   1.958       .  S
Ni1415     O1419   1.937       .  S
Ni1415     O1417   1.921       .  S
Ni1415     O1627   1.905   1_554  S
O1416     Ni1421   1.929       .  S
C1418      O1625   1.271       .  A
C1418      O1419   1.277   1_556  A
Ni1421     O1641   1.916       .  S
H1422      O1627   0.966       .  S
O1423     Ni1429   1.940       .  S
O1423      C1444   1.273       .  A
O1424     Ni1447   1.907       .  S
O1424      C1433   1.266   1_554  A
O1425     Ni1429   1.915       .  S
O1425     Ni1447   1.911       .  S
O1425     Ni1669   1.904   1_554  S
O1425      H1448   0.966       .  S
C1426      O1443   1.270       .  A
C1426      O1435   1.279       .  A
C1426      C1578   1.467       .  S
O1427     Ni1446   1.937       .  S
O1427      C1661   1.274       .  A
O1428     Ni1446   1.910       .  S
O1428      C1430   1.271       .  A
Ni1429     O1432   1.926       .  S
Ni1429     O1434   1.906       .  S
C1430      O1440   1.271       .  A
C1430      C1569   1.482       .  S
O1431     Ni1447   1.899       .  S
O1431      C1437   1.269       .  A
O1432      C1437   1.277       .  A
C1433      O1655   1.271       .  A
C1433      C1609   1.472       .  S
O1434      C1436   1.270       .  A
O1435     Ni1446   1.927       .  S
C1436      O1442   1.270       .  A
C1436      C1574   1.474       .  S
C1437      C1566   1.469       .  S
H1438      O1439   0.966       .  S
O1439     Ni1675   1.902       .  S
O1439     Ni1441   1.902       .  S
O1439     Ni1446   1.901       .  S
O1440     Ni1441   1.932       .  S
Ni1441     O1445   1.891       .  S
Ni1441     O1443   1.900       .  S
Ni1441     O1653   1.898       .  S
O1442     Ni1447   1.927       .  S
C1444      O1673   1.270   1_554  A
O1445      C1672   1.264       .  A
Ni1447     O1667   1.901   1_554  S
O1449     Ni1455   1.900       .  S
O1449      C1698   1.266       .  A
O1450     Ni1473   1.931       .  S
O1450      C1459   1.271       .  A
O1451     Ni1455   1.886       .  S
O1451     Ni1473   1.901       .  S
O1451     Ni1695   1.912       .  S
O1451      H1474   0.966       .  S
C1452      O1469   1.270       .  A
C1452      O1461   1.277       .  A
C1452      C1561   1.464       .  S
O1453     Ni1472   1.924       .  S
O1453      C1687   1.272       .  A
O1454     Ni1472   1.911       .  S
O1454      C1456   1.269       .  A
Ni1455     O1458   1.909       .  S
Ni1455     O1460   1.910       .  S
C1456      O1466   1.275       .  A
C1456      C1553   1.488       .  S
O1457     Ni1473   1.893       .  S
O1457      C1463   1.274       .  A
O1458      C1463   1.273       .  A
C1459      O1681   1.267       .  A
C1459      C1608   1.467       .  S
O1460      C1462   1.269       .  A
O1461     Ni1472   1.931       .  S
C1462      O1468   1.275       .  A
C1462      C1558   1.489       .  S
C1463      C1549   1.447       .  S
H1464      O1465   0.966       .  S
O1465     Ni1701   1.917   1_554  S
O1465     Ni1467   1.911       .  S
O1465     Ni1472   1.900       .  S
O1466     Ni1467   1.946       .  S
Ni1467     O1471   1.923       .  S
Ni1467     O1469   1.892       .  S
Ni1467     O1679   1.904   1_554  S
O1468     Ni1473   1.942       .  S
C1470      O1677   1.268   1_554  A
C1470      O1471   1.268       .  A
Ni1473     O1693   1.898       .  S
O1475     Ni1481   1.924       .  S
O1475      C1496   1.270       .  A
O1476     Ni1499   1.914       .  S
O1476      C1485   1.269       .  A
O1477     Ni1481   1.924       .  S
O1477     Ni1499   1.914       .  S
O1477     Ni1721   1.939   1_554  S
O1477      H1500   0.966       .  S
C1478      O1495   1.285       .  A
C1478      O1487   1.277       .  A
C1478      C1538   1.492       .  S
O1479     Ni1498   1.927       .  S
O1479      C1713   1.277       .  A
O1480     Ni1498   1.927       .  S
O1480      C1482   1.270       .  A
Ni1481     O1484   1.945       .  S
Ni1481     O1486   1.873       .  S
C1482      O1492   1.268       .  A
C1482      C1545   1.474       .  S
O1483     Ni1499   1.919       .  S
O1483      C1489   1.272       .  A
O1484      C1489   1.275       .  A
C1485      O1707   1.268   1_554  A
O1486      C1488   1.262       .  A
O1487     Ni1498   1.931       .  S
C1488      O1494   1.276       .  A
C1488      C1533   1.451       .  S
C1489      C1541   1.494       .  S
H1490      O1491   0.967       .  S
O1491     Ni1727   1.911       .  S
O1491     Ni1493   1.890       .  S
O1491     Ni1498   1.908       .  S
O1492     Ni1493   1.926       .  S
Ni1493     O1497   1.912       .  S
Ni1493     O1495   1.946       .  S
Ni1493     O1705   1.960       .  S
O1494     Ni1499   1.929       .  S
C1496      O1725   1.268   1_554  A
O1497      C1724   1.269       .  A
Ni1499     O1719   1.927   1_554  S
C1501      C1593   1.466       .  S
C1501      C1506   1.402       .  A
C1502      C1573   1.475       .  S
C1502      C1503   1.397       .  A
C1503      C1504   1.404       .  A
C1503      H1508   1.085       .  S
C1504      C1577   1.465       .  S
C1505      C1589   1.481       .  S
C1505      C1506   1.398       .  A
C1506      H1507   1.085       .  S
C1509      C1542   1.513       .  S
C1509      C1514   1.416       .  A
C1510      C1562   1.469       .  S
C1510      C1511   1.398       .  A
C1511      C1512   1.396       .  A
C1511      H1516   1.085       .  S
C1512      C1557   1.487       .  S
C1513      C1546   1.477       .  S
C1513      C1514   1.419       .  A
C1514      H1515   1.084       .  S
C1517      C1554   1.497       .  S
C1517      C1518   1.415       .  A
C1517      C1522   1.395       .  A
C1518      C1534   1.460       .  S
C1518      C1519   1.409       .  A
C1519      C1520   1.404       .  A
C1519      H1524   1.082       .  S
C1520      C1537   1.515       .  S
C1520      C1521   1.410       .  A
C1521      C1550   1.449       .  S
C1521      C1522   1.402       .  A
C1522      H1523   1.085       .  S
C1525      C1586   1.481       .  S
C1525      C1526   1.416       .  A
C1525      C1530   1.399       .  A
C1526      C1565   1.472       .  S
C1526      C1527   1.410       .  A
C1527      C1528   1.400       .  A
C1527      H1532   1.085       .  S
C1528      C1570   1.485       .  S
C1528      C1529   1.405       .  A
C1529      C1581   1.471       .  S
C1529      C1530   1.400       .  A
C1530      H1531   1.085       .  S
C1533      C1534   1.329       .  D
C1533      H1535   1.090       .  S
C1534      H1536   1.086       .  S
C1537      C1538   1.347       .  D
C1537      H1539   1.086       .  S
C1538      H1540   1.084       .  S
C1541      C1542   1.359       .  D
C1541      H1543   1.085       .  S
C1542      H1544   1.086       .  S
C1545      C1546   1.343       .  D
C1545      H1547   1.087       .  S
C1546      H1548   1.086       .  S
C1549      C1550   1.334       .  D
C1549      H1551   1.088       .  S
C1550      H1552   1.087       .  S
C1553      C1554   1.350       .  D
C1553      H1555   1.086       .  S
C1554      H1556   1.085       .  S
C1557      C1558   1.351       .  D
C1557      H1559   1.086       .  S
C1558      H1560   1.086       .  S
C1561      C1562   1.344       .  D
C1561      H1563   1.087       .  S
C1562      H1564   1.087       .  S
C1565      C1566   1.340       .  D
C1565      H1567   1.087       .  S
C1566      H1568   1.086       .  S
C1569      C1570   1.342       .  D
C1569      H1571   1.086       .  S
C1570      H1572   1.087       .  S
C1573      C1574   1.339       .  D
C1573      H1575   1.087       .  S
C1574      H1576   1.087       .  S
C1577      C1578   1.335       .  D
C1577      H1579   1.086       .  S
C1578      H1580   1.087       .  S
C1581      C1582   1.340       .  D
C1581      H1583   1.088       .  S
C1582      H1584   1.087       .  S
C1585      C1586   1.354       .  D
C1585      H1587   1.086       .  S
C1586      H1588   1.087       .  S
C1589      C1590   1.342       .  D
C1589      H1591   1.084       .  S
C1590      H1592   1.086       .  S
C1593      C1594   1.344       .  D
C1593      H1595   1.087       .  S
C1594      H1596   1.084       .  S
O1597     Ni1605   1.950       .  S
O1597      C1607   1.286       .  A
O1598     Ni1605   1.953       .  S
O1599     Ni1605   1.926       .  S
O1599      C1609   1.283       .  A
O1600     Ni1605   1.933       .  S
O1601     Ni1606   1.906       .  S
O1601      C1610   1.280       .  A
O1602     Ni1606   1.914       .  S
O1603     Ni1606   1.891       .  S
O1603      C1608   1.277       .  A
O1604     Ni1606   1.891       .  S
C1610      C1724   1.468       .  S
O1614     Ni1619   1.917       .  S
O1615      C1624   1.283       .  A
O1616     Ni1620   1.932       .  S
O1616      C1623   1.283       .  A
O1617      C1622   1.285       .  A
O1618      C1621   1.282       .  A
C1621      C1698   1.471       .  S
C1622      C1646   1.472       .  S
C1623      C1713   1.464       .  S
C1624      C1672   1.457       .  S
O1625     Ni1631   1.912       .  S
O1626     Ni1649   1.931       .  S
O1627     Ni1631   1.887       .  S
O1627     Ni1649   1.907       .  S
C1628      O1645   1.268       .  A
C1628      O1637   1.276       .  A
C1628      C1822   1.466       .  S
O1629     Ni1648   1.919       .  S
O1629      C1635   1.270       .  A
O1630     Ni1648   1.894       .  S
O1630      C1632   1.268       .  A
Ni1631     O1634   1.909       .  S
Ni1631     O1636   1.917       .  S
C1632      O1642   1.275       .  A
C1632      C1813   1.478       .  S
O1633     Ni1649   1.905       .  S
O1633      C1639   1.274       .  A
O1634      C1639   1.273       .  A
O1636      C1638   1.271       .  A
O1637     Ni1648   1.919       .  S
C1638      O1644   1.272       .  A
C1638      C1818   1.488       .  S
C1639      C1810   1.449       .  S
H1640      O1641   0.966       .  S
O1641     Ni1643   1.916       .  S
O1641     Ni1648   1.893       .  S
O1642     Ni1643   1.942       .  S
Ni1643     O1647   1.922       .  S
Ni1643     O1645   1.900       .  S
O1644     Ni1649   1.934       .  S
C1646      O1647   1.269       .  A
O1651     Ni1657   1.928       .  S
O1651      C1672   1.268       .  A
O1652     Ni1675   1.905       .  S
O1652      C1661   1.270       .  A
O1653     Ni1657   1.904       .  S
O1653     Ni1675   1.904       .  S
O1653      H1676   0.966       .  S
C1654      O1671   1.271       .  A
C1654      O1663   1.273       .  A
C1654      C1806   1.459       .  S
O1655     Ni1674   1.934       .  S
O1656     Ni1674   1.903       .  S
O1656      C1658   1.271       .  A
Ni1657     O1660   1.910       .  S
Ni1657     O1662   1.891       .  S
C1658      O1668   1.275       .  A
C1658      C1797   1.480       .  S
O1659     Ni1675   1.908       .  S
O1659      C1665   1.272       .  A
O1660      C1665   1.275       .  A
O1662      C1664   1.268       .  A
O1663     Ni1674   1.918       .  S
C1664      O1670   1.276       .  A
C1664      C1802   1.486       .  S
C1665      C1794   1.464       .  S
H1666      O1667   0.966   1_554  S
O1667     Ni1669   1.911       .  S
O1667     Ni1674   1.905       .  S
O1668     Ni1669   1.938       .  S
Ni1669     O1673   1.908       .  S
Ni1669     O1671   1.904       .  S
O1670     Ni1675   1.946       .  S
O1677     Ni1683   1.914       .  S
O1678     Ni1701   1.936       .  S
O1678      C1687   1.276   1_556  A
O1679     Ni1683   1.892       .  S
O1679     Ni1701   1.908       .  S
O1679      H1702   0.966       .  S
C1680      O1697   1.281       .  A
C1680      O1689   1.274       .  A
C1680      C1789   1.448       .  S
O1681     Ni1700   1.904       .  S
O1682     Ni1700   1.908       .  S
O1682      C1684   1.269       .  A
Ni1683     O1686   1.913       .  S
Ni1683     O1688   1.912       .  S
C1684      O1694   1.276       .  A
C1684      C1781   1.493       .  S
O1685     Ni1701   1.920       .  S
O1685      C1691   1.279       .  A
O1686      C1691   1.275       .  A
O1688      C1690   1.269       .  A
O1689     Ni1700   1.902       .  S
C1690      O1696   1.280       .  A
C1690      C1786   1.498       .  S
C1691      C1777   1.462       .  S
H1692      O1693   0.966       .  S
O1693     Ni1695   1.900       .  S
O1693     Ni1700   1.878       .  S
O1694     Ni1695   1.949       .  S
Ni1695     O1699   1.941       .  S
Ni1695     O1697   1.914       .  S
O1696     Ni1701   1.958       .  S
C1698      O1699   1.276       .  A
O1703     Ni1709   1.919       .  S
O1703      C1724   1.271       .  A
O1704     Ni1727   1.907       .  S
O1704      C1713   1.270       .  A
O1705     Ni1709   1.915       .  S
O1705     Ni1727   1.918       .  S
O1705      H1728   0.965       .  S
C1706      O1723   1.275       .  A
C1706      O1715   1.273       .  A
C1706      C1766   1.491       .  S
O1707     Ni1726   1.918       .  S
O1708     Ni1726   1.882       .  S
O1708      C1710   1.264       .  A
Ni1709     O1712   1.942       .  S
Ni1709     O1714   1.887       .  S
C1710      O1720   1.275       .  A
C1710      C1773   1.458       .  S
O1711     Ni1727   1.927       .  S
O1711      C1717   1.271       .  A
O1712      C1717   1.273       .  A
O1714      C1716   1.268       .  A
O1715     Ni1726   1.927       .  S
C1716      O1722   1.284       .  A
C1716      C1761   1.472       .  S
C1717      C1769   1.499       .  S
H1718      O1719   0.966   1_554  S
O1719     Ni1721   1.910       .  S
O1719     Ni1726   1.916       .  S
O1720     Ni1721   1.931       .  S
Ni1721     O1725   1.910       .  S
Ni1721     O1723   1.930       .  S
O1722     Ni1727   1.956       .  S
C1729      C1821   1.466       .  S
C1729      C1734   1.403       .  A
C1730      C1801   1.474       .  S
C1730      C1731   1.396       .  A
C1731      C1732   1.394       .  A
C1731      H1736   1.085       .  S
C1732      C1805   1.470       .  S
C1733      C1817   1.487       .  S
C1733      C1734   1.399       .  A
C1734      H1735   1.085       .  S
C1737      C1770   1.513       .  S
C1737      C1742   1.403       .  A
C1738      C1790   1.459       .  S
C1738      C1739   1.405       .  A
C1739      C1740   1.397       .  A
C1739      H1744   1.085       .  S
C1740      C1785   1.498       .  S
C1741      C1774   1.468       .  S
C1741      C1742   1.413       .  A
C1742      H1743   1.085       .  S
C1745      C1782   1.490       .  S
C1745      C1746   1.426       .  A
C1745      C1750   1.401       .  A
C1746      C1762   1.496       .  S
C1746      C1747   1.413       .  A
C1747      C1748   1.408       .  A
C1747      H1752   1.085       .  S
C1748      C1765   1.502       .  S
C1748      C1749   1.414       .  A
C1749      C1778   1.472       .  S
C1749      C1750   1.402       .  A
C1750      H1751   1.086       .  S
C1753      C1814   1.474       .  S
C1753      C1754   1.412       .  A
C1753      C1758   1.394       .  A
C1754      C1793   1.468       .  S
C1754      C1755   1.406       .  A
C1755      C1756   1.400       .  A
C1755      H1760   1.084       .  S
C1756      C1798   1.484       .  S
C1756      C1757   1.407       .  A
C1757      C1809   1.464       .  S
C1757      C1758   1.397       .  A
C1758      H1759   1.085       .  S
C1761      C1762   1.339       .  D
C1761      H1763   1.082       .  S
C1762      H1764   1.087       .  S
C1765      C1766   1.356       .  D
C1765      H1767   1.086       .  S
C1766      H1768   1.085       .  S
C1769      C1770   1.357       .  D
C1769      H1771   1.085       .  S
C1770      H1772   1.086       .  S
C1773      C1774   1.336       .  D
C1773      H1775   1.089       .  S
C1774      H1776   1.086       .  S
C1777      C1778   1.336       .  D
C1777      H1779   1.087       .  S
C1778      H1780   1.087       .  S
C1781      C1782   1.352       .  D
C1781      H1783   1.086       .  S
C1782      H1784   1.086       .  S
C1785      C1786   1.356       .  D
C1785      H1787   1.086       .  S
C1786      H1788   1.086       .  S
C1789      C1790   1.330       .  D
C1789      H1791   1.088       .  S
C1790      H1792   1.088       .  S
C1793      C1794   1.341       .  D
C1793      H1795   1.087       .  S
C1794      H1796   1.086       .  S
C1797      C1798   1.345       .  D
C1797      H1799   1.086       .  S
C1798      H1800   1.088       .  S
C1801      C1802   1.348       .  D
C1801      H1803   1.087       .  S
C1802      H1804   1.086       .  S
C1805      C1806   1.340       .  D
C1805      H1807   1.088       .  S
C1806      H1808   1.088       .  S
C1809      C1810   1.335       .  D
C1809      H1811   1.088       .  S
C1810      H1812   1.088       .  S
C1813      C1814   1.346       .  D
C1813      H1815   1.086       .  S
C1814      H1816   1.086       .  S
C1817      C1818   1.346       .  D
C1817      H1819   1.087       .  S
C1818      H1820   1.086       .  S
C1821      C1822   1.335       .  D
C1821      H1823   1.086       .  S
C1822      H1824   1.087       .  S
