geometry optimzed in LAMMPS
_audit_creation_date              2020-11-30 
_audit_creation_method            'lammps2cif' 
_symmetry_space_group_name_H-M    'P1' 
_symmetry_Int_Tables_number       1 
_symmetry_cell_setting            triclinic 
loop_ 
_symmetry_equiv_pos_as_xyz 
  x,y,z 
_cell_length_a                    36.56117048 
_cell_length_b                    36.64984164987988 
_cell_length_c                    30.460497431444185 
_cell_angle_alpha                 89.80364876931753 
_cell_angle_beta                  90.40528293442364 
_cell_angle_gamma                 90.17817959723298 
loop_ 
_atom_site_label 
_atom_site_type_symbol 
_atom_site_fract_x 
_atom_site_fract_y 
_atom_site_fract_z 
_atom_site_charge 
In1        In  0.34564447  0.63907011  0.36492958     1.36900
C2          C  0.36768718  0.61702753  0.44306700     0.77300
O3          O  0.38155378  0.68997182  0.35758097    -0.61100
O4          O  0.32482219  0.69544330  0.37044341    -0.52000
C5          C  0.36791549  0.60442742  0.29330063     0.70000
O6          O  0.36303855  0.63838362  0.29502803    -0.46900
C7          C  0.27301605  0.63292684  0.36316914     0.74700
O8          O  0.38465602  0.64148163  0.42221023    -0.58700
O9          O  0.29236001  0.62707908  0.32992702    -0.48800
O10         O  0.34489543  0.59912970  0.42066557    -0.55200
C11         C  0.35494343  0.71116047  0.36422533     0.84900
O12         O  0.36486588  0.58834551  0.32980966    -0.57100
O13         O  0.29068397  0.64163870  0.39714374    -0.60400
In14       In  0.34253830  0.63717885  0.56856768     1.36900
C15         C  0.36652339  0.61670536  0.49099191     0.77300
O16         O  0.29052636  0.60232964  0.57097065    -0.61100
O17         O  0.28644735  0.65984723  0.56496261    -0.52000
C18         C  0.37594570  0.61321189  0.64091628     0.70000
O19         O  0.39194283  0.61507298  0.60440900    -0.46900
C20         C  0.34982956  0.70924725  0.57081498     0.74700
O21         O  0.38234541  0.64104821  0.51315716    -0.58700
O22         O  0.35702865  0.68945963  0.60362781    -0.48800
O23         O  0.34303391  0.59826348  0.51166421    -0.55200
C24         C  0.26992469  0.62986135  0.56776614     0.84900
O25         O  0.34224131  0.61999703  0.63906080    -0.57100
O26         O  0.33963395  0.69222477  0.53705814    -0.60400
C27         C  0.45632208  0.61154546  0.80724331     0.86200
C28         C  0.49544552  0.59632303  0.80846973    -0.54000
C29         C  0.51319946  0.60052419  0.84760103     0.09200
C30         C  0.49022205  0.62052923  0.88261787     0.20100
C31         C  0.43766737  0.59257122  0.84630778    -0.54700
C32         C  0.45461476  0.59743189  0.88629410     0.09300
C33         C  0.46053775  0.65139424  0.82103109    -0.54300
C34         C  0.47817707  0.65650274  0.86003151     0.09800
H35         H  0.50733558  0.57968074  0.78305609     0.14400
H36         H  0.50514265  0.62544706  0.91379919     0.00100
H37         H  0.41315616  0.57616692  0.84205775     0.14700
H38         H  0.45137676  0.67404630  0.80065748     0.14400
C39         C  0.37577353  0.53148878  0.12324767     0.86200
C40         C  0.39170846  0.49274527  0.12042935    -0.54000
C41         C  0.38753407  0.47636891  0.08031449     0.09200
C42         C  0.36701338  0.50046616  0.04638245     0.20100
C43         C  0.39481942  0.55178523  0.08530373    -0.54700
C44         C  0.38982972  0.53603684  0.04506541     0.09300
C45         C  0.33597783  0.52743869  0.10880412    -0.54300
C46         C  0.33094982  0.51134410  0.06910012     0.09800
H47         H  0.40821579  0.48048086  0.14619574     0.14400
H48         H  0.36318244  0.48734564  0.01386329     0.00100
H49         H  0.41106752  0.57636163  0.08977766     0.14700
H50         H  0.31321727  0.53636304  0.12885955     0.14400
C51         C  0.55404383  0.35590581  0.11771408     0.86200
C52         C  0.57363227  0.37512042  0.07944187    -0.54000
C53         C  0.55719708  0.37048383  0.03941343     0.09200
C54         C  0.52153203  0.34767154  0.04116619     0.20100
C55         C  0.51507373  0.37160254  0.11541919    -0.54700
C56         C  0.49790762  0.36791081  0.07552931     0.09300
C57         C  0.54969913  0.31617176  0.10324853    -0.54300
C58         C  0.53290153  0.31136074  0.06364871     0.09800
H59         H  0.59877312  0.39064230  0.08349624     0.14400
H60         H  0.50793087  0.34402160  0.00876674     0.00100
H61         H  0.50287152  0.38745720  0.14138310     0.14700
H62         H  0.55913965  0.29332560  0.12311244     0.14400
C63         C  0.62953723  0.43206716  0.79821851     0.86200
C64         C  0.61353634  0.41205326  0.83852120    -0.54000
C65         C  0.62081381  0.42798031  0.87824180     0.09200
C66         C  0.64212266  0.46437167  0.87356216     0.20100
C67         C  0.61297973  0.47032031  0.80139193    -0.54700
C68         C  0.61897155  0.48728558  0.84069555     0.09300
C69         C  0.67017947  0.43708816  0.80935289    -0.54300
C70         C  0.67703598  0.45398043  0.84831265     0.09800
H71         H  0.59513421  0.38917214  0.83620777     0.14400
H72         H  0.64808139  0.47852743  0.90491766     0.00100
H73         H  0.59563219  0.48192314  0.77585218     0.14700
H74         H  0.69197372  0.42726289  0.78842883     0.14400
In75       In  0.66667770  0.32039792  0.35760105     1.36900
C76         C  0.64680411  0.33582805  0.43872498     0.77300
O77         O  0.68429734  0.26665019  0.38524473    -0.61100
O78         O  0.64334905  0.26627299  0.33551842    -0.52000
C79         C  0.63205868  0.34651146  0.28605391     0.70000
O80         O  0.61772016  0.34747329  0.32359518    -0.46900
C81         C  0.73845757  0.32965735  0.34960334     0.74700
O82         O  0.62983898  0.31289761  0.41555095    -0.58700
O83         O  0.72141582  0.30130375  0.33849183    -0.48800
O84         O  0.66967854  0.35521567  0.41823133    -0.55200
C85         C  0.66392931  0.24796621  0.36058714     0.84900
O86         O  0.66451393  0.33544042  0.28653390    -0.57100
O87         O  0.71848871  0.35547666  0.36293551    -0.60400
In88       In  0.66354274  0.31524374  0.56814083     1.36900
C89         C  0.64609517  0.33420993  0.48672583     0.77300
O90         O  0.71781676  0.30976282  0.53552295    -0.61100
O91         O  0.71728765  0.32715520  0.60197190    -0.52000
C92         C  0.63382642  0.35518692  0.63168593     0.70000
O93         O  0.62983774  0.32112850  0.62934447    -0.46900
C94         C  0.65845572  0.24323359  0.57664354     0.74700
O95         O  0.62863592  0.30988429  0.50726779    -0.58700
O96         O  0.68467098  0.26171402  0.59179022    -0.48800
O97         O  0.66830213  0.35225246  0.50978032    -0.55200
C98         C  0.73605205  0.31940564  0.56871189     0.84900
O99         O  0.64960117  0.36899130  0.59905334    -0.57100
O100        O  0.63271512  0.26173033  0.56005314    -0.60400
In101      In  0.35345353  0.82331426  0.35940454     1.36900
C102        C  0.37065671  0.83876562  0.44215081     0.77300
O103        O  0.29858489  0.84902755  0.37161316    -0.61100
O104        O  0.30213347  0.80853583  0.32236553    -0.52000
C105        C  0.38301981  0.85847974  0.29122835     0.70000
O106        O  0.37647982  0.87443293  0.32684034    -0.46900
C107        C  0.35695779  0.75109334  0.36436131     0.74700
O108        O  0.38970143  0.81735664  0.41945804    -0.58700
O109        O  0.32913778  0.76944076  0.37401293    -0.48800
O110        O  0.34665434  0.85597706  0.42088738    -0.55200
C111        C  0.28192134  0.82915949  0.34438370     0.84900
O112        O  0.37809132  0.82462686  0.29273806    -0.57100
O113        O  0.38480891  0.76976485  0.35400616    -0.60400
In114      In  0.35306235  0.82133477  0.57211237     1.36900
C115        C  0.37089676  0.83822103  0.49025540     0.77300
O116        O  0.34363445  0.76799279  0.53860299    -0.61100
O117        O  0.36082696  0.76683078  0.60538635    -0.52000
C118        C  0.39652007  0.84995277  0.63419910     0.70000
O119        O  0.40754726  0.82729486  0.60640760    -0.46900
C120        C  0.28111016  0.82828159  0.58351368     0.74700
O121        O  0.38727028  0.81378067  0.51176382    -0.58700
O122        O  0.30028691  0.80510861  0.60364513    -0.48800
O123        O  0.34954074  0.85763721  0.51252407    -0.55200
C124        C  0.35182803  0.74895850  0.57167615     0.84900
O125        O  0.36436428  0.86083852  0.62725009    -0.57100
O126        O  0.29907033  0.85065873  0.56060423    -0.60400
C127        C  0.38809639  0.93267739  0.12228356     0.86200
C128        C  0.40832520  0.91401391  0.08442233    -0.54000
C129        C  0.40191271  0.92919341  0.04411971     0.09200
C130        C  0.37650077  0.96278374  0.04523777     0.20100
C131        C  0.40082510  0.97266798  0.11901390    -0.54700
C132        C  0.39536406  0.98855396  0.07873269     0.09300
C133        C  0.34790201  0.93332971  0.10807293    -0.54300
C134        C  0.34146541  0.94896402  0.06818694     0.09800
H135        H  0.42575821  0.89035402  0.08895996     0.14400
H136        H  0.37139163  0.97541839  0.01258919     0.00100
H137        H  0.41657383  0.98635211  0.14435145     0.14700
H138        H  0.32600214  0.92264918  0.12842026     0.14400
C139        C  0.46721006  0.85622306  0.80516507     0.86200
C140        C  0.44674962  0.87376235  0.84391125    -0.54000
C141        C  0.46198970  0.86723031  0.88448375     0.09200
C142        C  0.49766580  0.84455271  0.88216466     0.20100
C143        C  0.50601501  0.87137394  0.80947790    -0.54700
C144        C  0.52221768  0.86568508  0.84941041     0.09300
C145        C  0.47010512  0.81586211  0.81801151    -0.54300
C146        C  0.48625014  0.80944255  0.85768762     0.09800
H147        H  0.42320758  0.89112074  0.84010584     0.14400
H148        H  0.51105141  0.83900223  0.91426726     0.00100
H149        H  0.51882279  0.88728847  0.78361748     0.14700
H150        H  0.46033785  0.79386199  0.79712190     0.14400
C151        C  0.63998115  0.02710001  0.80619597     0.86200
C152        C  0.62669715  0.98749095  0.81051893    -0.54000
C153        C  0.63261104  0.97218853  0.85095543     0.09200
C154        C  0.65226635  0.99809589  0.88371109     0.20100
C155        C  0.62086184  0.04679221  0.84401346    -0.54700
C156        C  0.62755709  0.03235072  0.88462187     0.09300
C157        C  0.68042097  0.02567061  0.81940109    -0.54300
C158        C  0.68722419  0.01073707  0.85961100     0.09800
H159        H  0.61070396  0.97335221  0.78582190     0.14400
H160        H  0.65748716  0.98573214  0.91646192     0.00100
H161        H  0.60365209  0.07058668  0.83906194     0.14700
H162        H  0.70217281  0.03575343  0.79840446     0.14400
C163        C  0.55822872  0.11259579  0.11824528     0.86200
C164        C  0.51971922  0.09587194  0.11569716    -0.54000
C165        C  0.50232348  0.10039775  0.07621576     0.09200
C166        C  0.52536577  0.12210772  0.04225174     0.20100
C167        C  0.57808748  0.09537723  0.07926001    -0.54700
C168        C  0.56188689  0.10032578  0.03888012     0.09300
C169        C  0.55273632  0.15270926  0.10539615    -0.54300
C170        C  0.53584090  0.15810937  0.06589511     0.09800
H171        H  0.50748084  0.07947366  0.14127377     0.14400
H172        H  0.51069269  0.12743482  0.01111242     0.00100
H173        H  0.60269353  0.07942310  0.08429474     0.14700
H174        H  0.56163943  0.17524482  0.12599804     0.14400
In175      In  0.67436960  0.13623198  0.35476130     1.36900
C176        C  0.65569932  0.11619492  0.43522133     0.77300
O177        O  0.72693197  0.10412357  0.36402366    -0.61100
O178        O  0.72861652  0.15541120  0.33118415    -0.52000
C179        C  0.64083118  0.11027112  0.28317959     0.70000
O180        O  0.62615664  0.10859699  0.32047948    -0.46900
C181        C  0.66612743  0.20822147  0.35962873     0.74700
O182        O  0.67899399  0.09880064  0.41329677    -0.58700
O183        O  0.64633799  0.18869307  0.33514433    -0.48800
O184        O  0.63822513  0.13992590  0.41382502    -0.55200
C185        C  0.74627421  0.12864048  0.34625386     0.84900
O186        O  0.67345037  0.12098205  0.28406707    -0.57100
O187        O  0.68940400  0.19097816  0.38207281    -0.60400
In188      In  0.67054506  0.13224546  0.56540513     1.36900
C189        C  0.65473182  0.11485157  0.48324139     0.72500
O190        O  0.63505945  0.18290263  0.56101699    -0.61100
O191        O  0.68952086  0.18721667  0.58563901    -0.52000
C192        C  0.64435187  0.09956504  0.63665781     0.70000
O193        O  0.64299606  0.08414108  0.59966886    -0.46900
C194        C  0.74248357  0.12731410  0.56405948     0.74700
O195        O  0.67894298  0.09841426  0.50510227    -0.58700
O196        O  0.72471103  0.15031486  0.54191446    -0.48800
O197        O  0.63445685  0.13552538  0.50537984    -0.55200
C198        C  0.66040588  0.20337991  0.57520355     0.84900
O199        O  0.65619999  0.13167627  0.63549630    -0.57100
O200        O  0.72344506  0.10555002  0.58660005    -0.60400
In201      In  0.16036056  0.63124180  0.36028651     1.36900
C202        C  0.14188761  0.61517014  0.44192595     0.77300
O203        O  0.21407634  0.64081489  0.39442527    -0.61100
O204        O  0.21507504  0.62073928  0.32916720    -0.52000
C205        C  0.13034983  0.58927602  0.29818835     0.70000
O206        O  0.15041886  0.57661355  0.32823719    -0.46900
C207        C  0.15421037  0.70269446  0.34541795     0.74700
O208        O  0.16408267  0.59590072  0.42081623    -0.58700
O209        O  0.17834291  0.68309327  0.32815396    -0.48800
O210        O  0.12518984  0.63879618  0.41937411    -0.55200
C211        C  0.23311998  0.63105967  0.36230197     0.84900
O212        O  0.12253013  0.62241505  0.30295022    -0.57100
O213        O  0.13077128  0.68537264  0.36754453    -0.60400
In214      In  0.15713116  0.63258669  0.57242450     1.36900
C215        C  0.14132767  0.61574028  0.48989390     0.77300
O216        O  0.13279768  0.68702745  0.55599842    -0.61100
O217        O  0.17059132  0.68372274  0.60922609    -0.52000
C218        C  0.11999406  0.60441846  0.63994391     0.70000
O219        O  0.10453654  0.61470942  0.60507208    -0.46900
C220        C  0.22982739  0.62885437  0.56808616     0.74700
O221        O  0.16113052  0.59536265  0.51350744    -0.58700
O222        O  0.21190221  0.65790399  0.56410650    -0.48800
O223        O  0.12590701  0.64116048  0.51008330    -0.55200
C224        C  0.15133027  0.70370903  0.58458879     0.84900
O225        O  0.15427275  0.60505440  0.63816367    -0.57100
O226        O  0.21059319  0.60042171  0.57322390    -0.60400
C227        C  0.04876069  0.60316894  0.80982073     0.86200
C228        C  0.06937386  0.58777222  0.85014484    -0.54000
C229        C  0.05383411  0.59509722  0.89004920     0.09200
C230        C  0.01749201  0.61673594  0.88523595     0.20100
C231        C  0.01059133  0.58665917  0.81427103    -0.54700
C232        C  0.99384399  0.59352570  0.85324020     0.09300
C233        C  0.04416826  0.64385607  0.81972029    -0.54300
C234        C  0.02799242  0.65122495  0.85884347     0.09800
H235        H  0.09285117  0.57021938  0.84770418     0.14400
H236        H  0.00342629  0.62380005  0.91598506     0.00100
H237        H  0.99845590  0.56917016  0.78935037     0.14700
H238        H  0.05358235  0.66527287  0.79773267     0.14400
C239        C  0.12958900  0.52313896  0.12644060     0.86200
C240        C  0.11358622  0.54572862  0.08802356    -0.54000
C241        C  0.12057071  0.53205986  0.04741415     0.09200
C242        C  0.14347821  0.49679974  0.04826566     0.20100
C243        C  0.11458371  0.48468198  0.11880924    -0.54700
C244        C  0.12178375  0.47075222  0.07828452     0.09300
C245        C  0.17054260  0.52052284  0.11579848    -0.54300
C246        C  0.17793580  0.50673925  0.07517035     0.09800
H247        H  0.09771230  0.57034945  0.09106901     0.14400
H248        H  0.14912835  0.48535241  0.01531743     0.00100
H249        H  0.09812504  0.47022114  0.14286177     0.14700
H250        H  0.19197065  0.52933126  0.13830275     0.14400
C251        C  0.96337507  0.34992128  0.12087363     0.86200
C252        C  0.00300789  0.36379274  0.11781282    -0.54000
C253        C  0.01815182  0.35969106  0.07707873     0.09200
C254        C  0.99244775  0.34115147  0.04326941     0.20100
C255        C  0.94369666  0.37048603  0.08373616    -0.54700
C256        C  0.95750398  0.36499971  0.04274183     0.09300
C257        C  0.96535835  0.31020355  0.10581486    -0.54300
C258        C  0.98046640  0.30533749  0.06553529     0.09800
H259        H  0.01698077  0.37882630  0.14352695     0.14400
H260        H  0.00503146  0.33682791  0.01068082     0.00100
H261        H  0.92083211  0.38838929  0.09016862     0.14700
H262        H  0.95564620  0.28751755  0.12568897     0.14400
C263        C  0.87806186  0.42812437  0.80590115     0.86200
C264        C  0.89248686  0.46746430  0.80959914    -0.54000
C265        C  0.88665374  0.48361835  0.84943147     0.09200
C266        C  0.86591193  0.45890771  0.88209071     0.20100
C267        C  0.89613434  0.40839317  0.84523051    -0.54700
C268        C  0.88995842  0.42443578  0.88481718     0.09300
C269        C  0.83761088  0.43040100  0.81813740    -0.54300
C270        C  0.83087219  0.44671154  0.85731288     0.09800
H271        H  0.90824793  0.48050747  0.78379838     0.14400
H272        H  0.86072766  0.47199085  0.91427511     0.00100
H273        H  0.91323823  0.38447531  0.84324721     0.14700
H274        H  0.81572143  0.42089217  0.79668434     0.14400
In275      In  0.85051952  0.32144855  0.35787073     1.36900
C276        C  0.86803312  0.33862319  0.43964234     0.77300
O277        O  0.79868992  0.35618264  0.36099811    -0.61100
O278        O  0.79547280  0.30092470  0.34043731    -0.52000
C279        C  0.88325568  0.34585134  0.28553763     0.70000
O280        O  0.89457603  0.35464576  0.32330875    -0.46900
C281        C  0.85955840  0.24978593  0.36167551     0.74700
O282        O  0.84555431  0.35715554  0.41737469    -0.58700
O283        O  0.88196708  0.27015860  0.34194292    -0.48800
O284        O  0.88590791  0.31562845  0.41804040    -0.55200
C285        C  0.77855229  0.32968638  0.34962747     0.84900
O286        O  0.85400639  0.32783096  0.28562120    -0.57100
O287        O  0.83395742  0.26616863  0.38063014    -0.60400
In288      In  0.84855860  0.31839608  0.56838052     1.36900
C289        C  0.86731934  0.33782383  0.48766659     0.77300
O290        O  0.88272855  0.26707962  0.56160706    -0.61100
O291        O  0.82943392  0.26317356  0.58854533    -0.52000
C292        C  0.87541522  0.35725486  0.63517209     0.70000
O293        O  0.86122236  0.37183183  0.60170174    -0.46900
C294        C  0.77592808  0.32014046  0.56863119     0.74700
O295        O  0.84324053  0.35450442  0.50895598    -0.58700
O296        O  0.79482073  0.32887130  0.60173556    -0.48800
O297        O  0.88566406  0.31515125  0.50980537    -0.55200
C298        C  0.85765978  0.24672227  0.57618537     0.84900
O299        O  0.87945123  0.32330976  0.63205086    -0.57100
O300        O  0.79407807  0.31089162  0.53552452    -0.60400
In301      In  0.85795652  0.13775164  0.35651021     1.36900
C302        C  0.87458432  0.11928108  0.43816319     0.77300
O303        O  0.83780533  0.19111567  0.38093892    -0.61100
O304        O  0.88431712  0.19208638  0.33973357    -0.52000
C305        C  0.89367567  0.11215390  0.28681288     0.70000
O306        O  0.90828994  0.11281191  0.32440606    -0.46900
C307        C  0.78637956  0.12861875  0.34609993     0.74700
O308        O  0.85329386  0.10024645  0.41477632    -0.58700
O309        O  0.80390482  0.15505895  0.33002511    -0.48800
O310        O  0.89168349  0.14383048  0.41778315    -0.55200
C311        C  0.86120521  0.21005783  0.36118764     0.84900
O312        O  0.86049039  0.12080245  0.28660562    -0.57100
O313        O  0.80586992  0.10459410  0.36477569    -0.60400
In314      In  0.85408637  0.13515412  0.56733823     1.36900
C315        C  0.87343345  0.11852721  0.48616703     0.77300
O316        O  0.80170075  0.10709180  0.58779451    -0.61100
O317        O  0.79948566  0.15099587  0.54206716    -0.52000
C318        C  0.88137374  0.10208794  0.63836453     0.70000
O319        O  0.87796480  0.08588402  0.60212604    -0.46900
C320        C  0.85901977  0.20684799  0.57616303     0.74700
O321        O  0.84903057  0.10119144  0.50638522    -0.58700
O322        O  0.83184364  0.18840329  0.58848339    -0.48800
O323        O  0.89186385  0.14027613  0.50952892    -0.55200
C324        C  0.78219381  0.12785924  0.56437617     0.84900
O325        O  0.87433987  0.13556630  0.63656864    -0.57100
O326        O  0.88545897  0.18841443  0.56152690    -0.60400
C327        C  0.14033402  0.92873559  0.11829646     0.86200
C328        C  0.12510547  0.96767506  0.11507122    -0.54000
C329        C  0.13069494  0.98456976  0.07554605     0.09200
C330        C  0.15266309  0.96110099  0.04289310     0.20100
C331        C  0.12270369  0.90965330  0.07849239    -0.54700
C332        C  0.12961886  0.92580683  0.03881167     0.09300
C333        C  0.18079680  0.93234022  0.10701116    -0.54300
C334        C  0.18761310  0.94910662  0.06792810     0.09800
H335        H  0.10670430  0.97909160  0.13918407     0.14400
H336        H  0.15879689  0.97499208  0.01141202     0.00100
H337        H  0.10486872  0.88608417  0.08162975     0.14700
H338        H  0.20249951  0.92192667  0.12810985     0.14400
C339        C  0.05645314  0.84914783  0.80567261     0.86200
C340        C  0.01770752  0.86513959  0.80934304    -0.54000
C341        C  0.00228388  0.86136827  0.85001270     0.09200
C342        C  0.02692544  0.84064616  0.88327438     0.20100
C343        C  0.07750214  0.86808926  0.84299980    -0.54700
C344        C  0.06280944  0.86305818  0.88347082     0.09300
C345        C  0.05234392  0.80932501  0.82009930    -0.54300
C346        C  0.03678025  0.80442930  0.86016496     0.09800
H347        H  0.00465052  0.88124598  0.78382156     0.14400
H348        H  0.01450775  0.83705100  0.91617992     0.00100
H349        H  0.10211345  0.88420982  0.83797541     0.14700
H350        H  0.06023351  0.78655125  0.79948650     0.14400
C351        C  0.88755712  0.02763448  0.80721798     0.86200
C352        C  0.90798599  0.04589626  0.84561436    -0.54000
C353        C  0.90155097  0.03021621  0.88552805     0.09200
C354        C  0.87612465  0.99654039  0.88359445     0.20100
C355        C  0.90023157  0.98770144  0.80994894    -0.54700
C356        C  0.89470844  0.97135886  0.84980625     0.09300
C357        C  0.84742382  0.02660631  0.82091570    -0.54300
C358        C  0.84105192  0.01048275  0.86045951     0.09800
H359        H  0.92582795  0.06942242  0.84174689     0.14400
H360        H  0.87131574  0.98343970  0.91598009     0.00100
H361        H  0.91624512  0.97443659  0.78486867     0.14700
H362        H  0.82551333  0.03764458  0.80059237     0.14400
C363        C  0.97118795  0.10853524  0.12016035     0.86200
C364        C  0.95132092  0.08883584  0.08220583    -0.54000
C365        C  0.96628312  0.09431628  0.04164543     0.09200
C366        C  0.00089418  0.11857426  0.04302176     0.20100
C367        C  0.01067321  0.09457693  0.11700516    -0.54700
C368        C  0.02616250  0.09879534  0.07640613     0.09300
C369        C  0.97342244  0.14831504  0.10604645    -0.54300
C370        C  0.98836232  0.15398835  0.06587632     0.09800
H371        H  0.92768031  0.07138357  0.08733009     0.14400
H372        H  0.01361806  0.12387147  0.01067033     0.00100
H373        H  0.02322764  0.07718129  0.14167223     0.14700
H374        H  0.96274397  0.17045964  0.12582725     0.14400
In375      In  0.17108476  0.81339240  0.35140204     1.36900
C376        C  0.16487072  0.81845221  0.43831162     0.77300
O377        O  0.13440009  0.76398352  0.36222855    -0.61100
O378        O  0.18395032  0.75808585  0.32651806    -0.52000
C379        C  0.14102198  0.85269379  0.28652881     0.70000
O380        O  0.15543671  0.86743045  0.31971610    -0.46900
C381        C  0.24209946  0.82666053  0.34255728     0.74700
O382        O  0.14328440  0.83598966  0.41329453    -0.58700
O383        O  0.22572690  0.80217649  0.32118541    -0.48800
O384        O  0.18747189  0.79872301  0.41870377    -0.55200
C385        C  0.15665405  0.74267241  0.34363668     0.84900
O386        O  0.13757573  0.81866010  0.28977709    -0.57100
O387        O  0.22177539  0.84624614  0.36575636    -0.60400
In388      In  0.16992173  0.81310109  0.57362029     1.36900
C389        C  0.16522368  0.81895001  0.48656705     0.77300
O390        O  0.22009532  0.84919832  0.56530568    -0.61100
O391        O  0.22516308  0.79785574  0.59782993    -0.52000
C392        C  0.13147783  0.84314995  0.63778390     0.70000
O393        O  0.11616801  0.83069740  0.60379213    -0.46900
C394        C  0.15447260  0.74323698  0.58492097     0.74700
O395        O  0.14876467  0.84153226  0.51086668    -0.58700
O396        O  0.17897334  0.75934026  0.60664708    -0.48800
O397        O  0.18375190  0.79548031  0.50692697    -0.55200
C398        C  0.24102552  0.82586575  0.58313922     0.84900
O399        O  0.16572509  0.84498958  0.63550108    -0.57100
O400        O  0.13585258  0.76337090  0.55987639    -0.60400
C401        C  0.91799278  0.04494535  0.92627444    -0.05700
C402        C  0.95610561  0.04808377  0.92999030    -0.33100
C403        C  0.97236354  0.06385247  0.96724682     0.36100
C404        C  0.95026414  0.07761633  0.00118697    -0.06100
C405        C  0.91196415  0.07465763  0.99693464    -0.33000
C406        C  0.89588292  0.05825853  0.96006750     0.36000
H407        H  0.97337549  0.03803008  0.90393772     0.16400
O408        O  0.00978455  0.06543903  0.97009670    -0.60500
H409        H  0.89428218  0.08563576  0.02199738     0.16400
O410        O  0.85849943  0.05733367  0.95616384    -0.60600
H411        H  0.85084551  0.03458011  0.97124321     0.43400
H412        H  0.01805530  0.03972104  0.97208455     0.43300
C413        C  0.11211873  0.85018639  0.67930806    -0.05700
C414        C  0.13124191  0.84359833  0.71852620    -0.33100
C415        C  0.11342218  0.84323148  0.75879568     0.36100
C416        C  0.07580054  0.85190774  0.76137722    -0.06100
C417        C  0.05675138  0.85936563  0.72182573    -0.33000
C418        C  0.07452581  0.85796593  0.68107604     0.36000
H419        H  0.15996223  0.83638407  0.71788362     0.16400
O420        O  0.13312737  0.83349488  0.79550342    -0.60500
H421        H  0.02770260  0.86447058  0.72157026     0.16400
O422        O  0.05490481  0.86416106  0.64324934    -0.60600
H423        H  0.04107858  0.84128522  0.63783060     0.43400
H424        H  0.13201805  0.80648176  0.79662095     0.43300
C425        C  0.96852304  0.88212292  0.86081892    -0.05700
C426        C  0.93845709  0.87988188  0.83199058    -0.33100
C427        C  0.91146697  0.90688562  0.83152292     0.36100
C428        C  0.91405599  0.93676767  0.86037393    -0.06100
C429        C  0.94157706  0.93677604  0.89270549    -0.33000
C430        C  0.96902072  0.90989971  0.89281573     0.36000
H431        H  0.93756559  0.85874455  0.80720931     0.16400
O432        O  0.88476184  0.90580289  0.79969073    -0.60500
H433        H  0.94408590  0.95965011  0.91499101     0.16400
O434        O  0.99788808  0.91301633  0.92155470    -0.60600
H435        H  0.01036862  0.93616551  0.91357035     0.43400
H436        H  0.86192998  0.89947192  0.81538632     0.43300
C437        C  0.13364213  0.87234169  0.24480141    -0.05700
C438        C  0.13663706  0.85266293  0.20561581    -0.33100
C439        C  0.13860246  0.87038692  0.16503784     0.36100
C440        C  0.13480417  0.90878475  0.16213464    -0.06100
C441        C  0.13076488  0.92838238  0.20167809    -0.33000
C442        C  0.13019827  0.91052621  0.24256773     0.36000
H443        H  0.14047078  0.82335803  0.20653520     0.16400
O444        O  0.14601173  0.84974560  0.12870512    -0.60500
H445        H  0.13000338  0.95784928  0.20165866     0.16400
O446        O  0.12803239  0.93083809  0.28018847    -0.60600
H447        H  0.10202956  0.93823248  0.28218836     0.43400
H448        H  0.17303501  0.84957596  0.12645068     0.43300
C449        C  0.05371588  0.07137596  0.06315707    -0.05700
C450        C  0.04226318  0.03494725  0.05964996    -0.33100
C451        C  0.06762557  0.00658705  0.05889431     0.36100
C452        C  0.10533365  0.01428351  0.06230925    -0.06100
C453        C  0.11706310  0.05082943  0.06213588    -0.33000
C454        C  0.09137434  0.07941672  0.06253588     0.36000
H455        H  0.01336071  0.02830740  0.06049415     0.16400
O456        O  0.05519883  0.97121725  0.05956436    -0.60500
H457        H  0.14595080  0.05712282  0.06492272     0.16400
O458        O  0.10329089  0.11486750  0.06492760    -0.60600
H459        H  0.10290517  0.12103329  0.09656104     0.43400
H460        H  0.04765786  0.96587641  0.02892448     0.43300
C461        C  0.11457321  0.91043779  0.99713365    -0.05700
C462        C  0.11133695  0.87228211  0.99288724    -0.33100
C463        C  0.09402884  0.85667634  0.95641251     0.36100
C464        C  0.08013978  0.87907170  0.92291950    -0.06100
C465        C  0.08500818  0.91698614  0.92567623    -0.33000
C466        C  0.10152129  0.93283450  0.96269302     0.36000
H467        H  0.12209375  0.85432131  0.01813203     0.16400
O468        O  0.09135526  0.81945927  0.95347117    -0.60500
H469        H  0.07518590  0.93446197  0.89939435     0.16400
O470        O  0.10245019  0.97013258  0.96598249    -0.60600
H471        H  0.12079846  0.97836910  0.94426668     0.43400
H472        H  0.11475916  0.81153451  0.94028440     0.43300
C473        C  0.88940134  0.08346743  0.68052385    -0.05700
C474        C  0.88491801  0.10299496  0.71963272    -0.33100
C475        C  0.88535324  0.08535887  0.76033276     0.36100
C476        C  0.89186938  0.04737109  0.76317208    -0.06100
C477        C  0.89765667  0.02811524  0.72373989    -0.33000
C478        C  0.89653969  0.04581356  0.68291632     0.36000
H479        H  0.87893733  0.13192815  0.71871637     0.16400
O480        O  0.87806722  0.10550360  0.79713017    -0.60500
H481        H  0.90100606  0.99890215  0.72347474     0.16400
O482        O  0.90041910  0.02550729  0.64551885    -0.60600
H483        H  0.92670336  0.02739888  0.63804708     0.43400
H484        H  0.85102036  0.10618052  0.79914929     0.43300
C485        C  0.95124652  0.10488090  0.16400121    -0.05700
C486        C  0.96945264  0.09599366  0.20366773    -0.33100
C487        C  0.95097416  0.09651358  0.24402195     0.36100
C488        C  0.91356303  0.10554460  0.24533501    -0.06100
C489        C  0.89532870  0.11349739  0.20583346    -0.33000
C490        C  0.91374005  0.11401706  0.16593530     0.36000
H491        H  0.99840176  0.09036705  0.20438689     0.16400
O492        O  0.97025285  0.09007742  0.28203391    -0.60500
H493        H  0.86682541  0.12150703  0.20588155     0.16400
O494        O  0.89531406  0.12607551  0.12923801    -0.60600
H495        H  0.87761054  0.10644166  0.12180298     0.43400
H496        H  0.97202766  0.06317622  0.28431790     0.43300
C497        C  0.88295478  0.41152999  0.76007954    -0.05700
C498        C  0.90025078  0.37759179  0.75356150    -0.33100
C499        C  0.90002594  0.36062559  0.71247225     0.36100
C500        C  0.88290205  0.37753985  0.67626681    -0.06100
C501        C  0.86780954  0.41235226  0.68168950    -0.33000
C502        C  0.86722592  0.42904098  0.72299822     0.36000
H503        H  0.91272470  0.36258790  0.78008005     0.16400
O504        O  0.91482610  0.32642367  0.70886092    -0.60500
H505        H  0.85427454  0.42585228  0.65439088     0.16400
O506        O  0.84997857  0.46206150  0.72712740    -0.60600
H507        H  0.82340098  0.45649342  0.72585173     0.43400
H508        H  0.94104646  0.33055883  0.70255259     0.43300
C509        C  0.98380358  0.26807668  0.04724009    -0.05700
C510        C  0.95184029  0.24709454  0.04333240    -0.33100
C511        C  0.95348090  0.20905068  0.04297968     0.36100
C512        C  0.98754063  0.19128833  0.04680113    -0.06100
C513        C  0.01975114  0.21219455  0.04497470    -0.33000
C514        C  0.01802013  0.25059154  0.04523191     0.36000
H515        H  0.92534141  0.26019004  0.04506688     0.16400
O516        O  0.92143198  0.18953629  0.04519276    -0.60500
H517        H  0.04608634  0.19894429  0.04818408     0.16400
O518        O  0.04974012  0.27052969  0.04820919    -0.60600
H519        H  0.05494084  0.27265300  0.08011529     0.43400
H520        H  0.91966858  0.17617099  0.01704676     0.43300
C521        C  0.94279112  0.35304089  0.16428471    -0.05700
C522        C  0.95954131  0.36436587  0.20386886    -0.33100
C523        C  0.94006525  0.36419799  0.24352748     0.36100
C524        C  0.90319831  0.35288317  0.24418695    -0.06100
C525        C  0.88617091  0.34305917  0.20460319    -0.33000
C526        C  0.90554018  0.34241271  0.16540775     0.36000
H527        H  0.98803884  0.37201887  0.20509403     0.16400
O528        O  0.95807814  0.37286247  0.28173771    -0.60500
H529        H  0.85788675  0.33412377  0.20413247     0.16400
O530        O  0.88777155  0.33071581  0.12813144    -0.60600
H531        H  0.88730501  0.30367592  0.13025696     0.43400
H532        H  0.95392041  0.39936018  0.28579442     0.43300
C533        C  0.93976900  0.38038859  0.00226568    -0.05700
C534        C  0.96122618  0.38953261  0.96575031    -0.33100
C535        C  0.94550687  0.40494390  0.92798835     0.36100
C536        C  0.90746135  0.41073343  0.92563559    -0.06100
C537        C  0.88577165  0.40130555  0.96148115    -0.33000
C538        C  0.90139899  0.38588033  0.99937300     0.36000
H539        H  0.99037985  0.38494769  0.96604792     0.16400
O540        O  0.96753325  0.41413502  0.89332194    -0.60500
H541        H  0.85636327  0.40468379  0.95950245     0.16400
O542        O  0.87850522  0.37366429  0.03180153    -0.60600
H543        H  0.86725513  0.39585505  0.04435309     0.43400
H544        H  0.98152621  0.43596405  0.90303141     0.43300
C545        C  0.05144685  0.38045799  0.06527975    -0.05700
C546        C  0.04793182  0.40995753  0.03615065    -0.33100
C547        C  0.07424119  0.43768482  0.03515733     0.36100
C548        C  0.10413125  0.43639540  0.06437770    -0.06100
C549        C  0.10989417  0.40486486  0.08976736    -0.33000
C550        C  0.08381712  0.37683375  0.09018128     0.36000
H551        H  0.02280802  0.41392852  0.01800583     0.16400
O552        O  0.06743068  0.46840050  0.01067526    -0.60500
H553        H  0.13279407  0.40364924  0.11250997     0.16400
O554        O  0.08830462  0.34803280  0.11853247    -0.60600
H555        H  0.09847690  0.32813513  0.10037700     0.43400
H556        H  0.07969927  0.46413092  0.98222645     0.43300
C557        C  0.02803994  0.76677099  0.87531293    -0.05700
C558        C  0.05548326  0.74555309  0.89529313    -0.33100
C559        C  0.05327605  0.70724028  0.89525761     0.36100
C560        C  0.02396797  0.68961197  0.87372924    -0.06100
C561        C  0.99510064  0.71078712  0.85703279    -0.33000
C562        C  0.99675896  0.74907936  0.85827241     0.36000
H563        H  0.08014424  0.75848231  0.90752715     0.16400
O564        O  0.08186284  0.68730173  0.91199974    -0.60500
H565        H  0.97259992  0.69765891  0.83988954     0.16400
O566        O  0.96975072  0.76888020  0.83783430    -0.60600
H567        H  0.95665630  0.78143167  0.86178614     0.43400
H568        H  0.07365453  0.67911001  0.94140497     0.43300
C569        C  0.90586117  0.51818961  0.86106856    -0.05700
C570        C  0.90345222  0.54808524  0.83229200    -0.33100
C571        C  0.92951904  0.57619011  0.83376134     0.36100
C572        C  0.95912243  0.57422827  0.86354663    -0.06100
C573        C  0.95931509  0.54641164  0.89526865    -0.33000
C574        C  0.93253452  0.51887259  0.89474575     0.36000
H575        H  0.88296845  0.54821572  0.80640445     0.16400
O576        O  0.92831104  0.60327912  0.80261773    -0.60500
H577        H  0.98231910  0.54362029  0.91746232     0.16400
O578        O  0.93569862  0.49039211  0.92371305    -0.60600
H579        H  0.92370073  0.49883362  0.95094373     0.43400
H580        H  0.91041049  0.62117108  0.81377863     0.43300
C581        C  0.07094878  0.58150719  0.93229059    -0.05700
C582        C  0.10878754  0.57331678  0.93354025    -0.33100
C583        C  0.12512561  0.55644322  0.97006509     0.36100
C584        C  0.10424926  0.54883456  0.00739665    -0.06100
C585        C  0.06718352  0.55863259  0.00750002    -0.33000
C586        C  0.05053465  0.57483109  0.97079721     0.36000
H587        H  0.12627381  0.57996327  0.90615530     0.16400
O588        O  0.16185268  0.54899923  0.96957716    -0.60500
H589        H  0.05063847  0.55302173  0.03613714     0.16400
O590        O  0.01399594  0.58248597  0.97298808    -0.60600
H591        H  0.01224313  0.60441079  0.99182175     0.43400
H592        H  0.16430975  0.52671428  0.95139950     0.43300
C593        C  0.06567151  0.59704776  0.76440541    -0.05700
C594        C  0.10150383  0.58351696  0.75936006    -0.33100
C595        C  0.11853937  0.58319516  0.71840051     0.36100
C596        C  0.09998399  0.59623955  0.68093452    -0.06100
C597        C  0.06347472  0.60728671  0.68495948    -0.33000
C598        C  0.04641295  0.60794881  0.72602679     0.36000
H599        H  0.11800868  0.57499629  0.78687797     0.16400
O600        O  0.15397838  0.57120371  0.71575725    -0.60500
H601        H  0.04870749  0.61770154  0.65663369     0.16400
O602        O  0.01163545  0.62172286  0.72869590    -0.60600
H603        H  0.99541984  0.60241339  0.71663874     0.43400
H604        H  0.16929051  0.59187808  0.72623153     0.43300
C605        C  0.12086422  0.56846012  0.25807742    -0.05700
C606        C  0.13580151  0.53363565  0.25179210    -0.33100
C607        C  0.13679145  0.51798408  0.20984995     0.36100
C608        C  0.12241355  0.53702849  0.17310795    -0.06100
C609        C  0.10309485  0.56960331  0.18110394    -0.33000
C610        C  0.10276192  0.58549616  0.22269587     0.36000
H611        H  0.14913683  0.51954263  0.27879076     0.16400
O612        O  0.15297235  0.48451783  0.20485434    -0.60500
H613        H  0.08930434  0.58454725  0.15555029     0.16400
O614        O  0.08614199  0.61873591  0.22771417    -0.60600
H615        H  0.10364209  0.63688833  0.21566679     0.43400
H616        H  0.17966020  0.48915012  0.20670445     0.43300
C617        C  0.57990645  0.10831386  0.16144708    -0.05700
C618        C  0.56559203  0.09107935  0.19934453    -0.33100
C619        C  0.58580458  0.08936004  0.23874973     0.36100
C620        C  0.62098977  0.10484597  0.24110187    -0.06100
C621        C  0.63601372  0.12022828  0.20303960    -0.33000
C622        C  0.61590809  0.12242601  0.16398798     0.36000
H623        H  0.53858935  0.07930881  0.19971040     0.16400
O624        O  0.57098423  0.07218885  0.27457987    -0.60500
H625        H  0.66307508  0.13235918  0.20388650     0.16400
O626        O  0.63179973  0.13874399  0.12822292    -0.60600
H627        H  0.63030151  0.16536194  0.13371720     0.43400
H628        H  0.55537637  0.09075713  0.28874012     0.43300
C629        C  0.80294871  0.00764670  0.87677130    -0.05700
C630        C  0.78374371  0.04006702  0.88452666    -0.33100
C631        C  0.74539748  0.04058452  0.88401151     0.36100
C632        C  0.72552631  0.00826685  0.87602278    -0.06100
C633        C  0.74463113  0.97522996  0.87225761    -0.33000
C634        C  0.78316030  0.97481558  0.87230067     0.36000
H635        H  0.79851882  0.06568332  0.88684945     0.16400
O636        O  0.72760453  0.07343957  0.88607928    -0.60500
H637        H  0.72978127  0.95030668  0.86504818     0.16400
O638        O  0.80108039  0.94285687  0.86357112    -0.60600
H639        H  0.80434641  0.94262191  0.83125810     0.43400
H640        H  0.72966152  0.08117487  0.91719451     0.43300
C641        C  0.63486314  0.04636492  0.76197161    -0.05700
C642        C  0.62322418  0.02801533  0.72352208    -0.33100
C643        C  0.62411748  0.04534695  0.68233958     0.36100
C644        C  0.63621806  0.08168775  0.67904862    -0.06100
C645        C  0.64516523  0.10070516  0.71753896    -0.33000
C646        C  0.64506482  0.08346126  0.75829095     0.36000
H647        H  0.61508319  0.99975234  0.72405728     0.16400
O648        O  0.61373832  0.02630532  0.64557364    -0.60500
H649        H  0.65428767  0.12883852  0.71606389     0.16400
O650        O  0.65605618  0.10304031  0.79443221    -0.60600
H651        H  0.68314982  0.10361885  0.79327626     0.43400
H652        H  0.63424577  0.00950673  0.63950434     0.43300
C653        C  0.61108647  0.04858590  0.92461614    -0.05700
C654        C  0.57384964  0.05760156  0.92435970    -0.33100
C655        C  0.55772159  0.07574794  0.95973297     0.36100
C656        C  0.57852889  0.08432530  0.99774384    -0.06100
C657        C  0.61639908  0.07611800  0.99692806    -0.33000
C658        C  0.63247114  0.05830874  0.96116385     0.36000
H659        H  0.55703126  0.05089842  0.89606084     0.16400
O660        O  0.52152798  0.08456590  0.95616969    -0.60500
H661        H  0.63424201  0.08411055  0.02368877     0.16400
O662        O  0.66953100  0.05266579  0.96115172    -0.60600
H663        H  0.67328553  0.02965175  0.97774743     0.43400
H664        H  0.52069042  0.10624477  0.93653300     0.43300
C665        C  0.55726988  0.88440773  0.86018104    -0.05700
C666        C  0.55776470  0.91139668  0.89272724    -0.33100
C667        C  0.58566850  0.93770586  0.89427030     0.36100
C668        C  0.61328139  0.93769787  0.86230228    -0.06100
C669        C  0.61508318  0.90825382  0.83293711    -0.33000
C670        C  0.58723760  0.88186835  0.83151881     0.36000
H671        H  0.53454563  0.91473832  0.91393306     0.16400
O672        O  0.58265478  0.96609731  0.92314402    -0.60500
H673        H  0.63624263  0.90769649  0.80820678     0.16400
O674        O  0.58814013  0.85513338  0.80007013    -0.60600
H675        H  0.58291166  0.86767499  0.77178799     0.43400
H676        H  0.59697022  0.95852567  0.94934281     0.43300
C677        C  0.22586907  0.95245261  0.05212004    -0.05700
C678        C  0.24541583  0.98493587  0.05941355    -0.33100
C679        C  0.28390027  0.98518496  0.05918971     0.36100
C680        C  0.30326021  0.95263516  0.05186306    -0.06100
C681        C  0.28365597  0.92098702  0.04054389    -0.33000
C682        C  0.24525150  0.92075050  0.04063386     0.36000
H683        H  0.23095857  0.00931893  0.06920061     0.16400
O684        O  0.30222052  0.01620582  0.07166875    -0.60500
H685        H  0.29813523  0.89562175  0.03535483     0.16400
O686        O  0.22685213  0.88870913  0.03274113    -0.60600
H687        H  0.22688450  0.87544605  0.06117745     0.43400
H688        H  0.31297568  0.02609755  0.04430556     0.43300
C689        C  0.41418641  0.02370418  0.06809863    -0.05700
C690        C  0.41291892  0.05234981  0.09862651    -0.33100
C691        C  0.43904937  0.08042373  0.09811801     0.36100
C692        C  0.46763834  0.07997097  0.06727891    -0.06100
C693        C  0.46656275  0.05356654  0.03405245    -0.33000
C694        C  0.43982707  0.02587055  0.03383069     0.36000
H695        H  0.39320353  0.05147700  0.12501211     0.16400
O696        O  0.43850632  0.10623841  0.13058892    -0.60500
H697        H  0.48864771  0.05173916  0.01100998     0.16400
O698        O  0.44116409  0.99928667  0.00230620    -0.60600
H699        H  0.46402652  0.98557734  0.00824536     0.43400
H700        H  0.42412357  0.12669686  0.11817583     0.43300
C701        C  0.41754854  0.91373479  0.00346306    -0.05700
C702        C  0.39420764  0.90427388  0.96874288    -0.33100
C703        C  0.40786433  0.88782562  0.93080429     0.36100
C704        C  0.44598335  0.88187932  0.92612443    -0.06100
C705        C  0.46904228  0.89067067  0.96172218    -0.33000
C706        C  0.45518712  0.90642969  0.99999029     0.36000
H707        H  0.36501296  0.90862397  0.97162640     0.16400
O708        O  0.38331683  0.87659252  0.89937865    -0.60500
H709        H  0.49805569  0.88568791  0.96025408     0.16400
O710        O  0.47891757  0.91616759  0.03306750    -0.60600
H711        H  0.48552456  0.89302767  0.04803982     0.43400
H712        H  0.37973969  0.85013745  0.90484910     0.43300
C713        C  0.41799197  0.85941550  0.67411703    -0.05700
C714        C  0.45209994  0.84292084  0.68132034    -0.33100
C715        C  0.46882946  0.84361121  0.72285223     0.36100
C716        C  0.45149181  0.86096435  0.75859291    -0.06100
C717        C  0.41913181  0.88063825  0.74981358    -0.33000
C718        C  0.40247248  0.87987185  0.70825987     0.36000
H719        H  0.46500662  0.82759191  0.65534930     0.16400
O720        O  0.50172902  0.82617753  0.72860531    -0.60500
H721        H  0.40536600  0.89590017  0.77483713     0.16400
O722        O  0.37019238  0.89820961  0.70198056    -0.60600
H723        H  0.35099396  0.88189221  0.71396863     0.43400
H724        H  0.49602607  0.79970203  0.72775915     0.43300
C725        C  0.39268944  0.91337545  0.16669172    -0.05700
C726        C  0.39849788  0.93289947  0.20610279    -0.33100
C727        C  0.39780138  0.91527681  0.24710121     0.36100
C728        C  0.39156524  0.87741619  0.24950904    -0.06100
C729        C  0.38745672  0.85771663  0.21040426    -0.33000
C730        C  0.38666990  0.87530291  0.16974300     0.36000
H731        H  0.40137071  0.96219490  0.20614656     0.16400
O732        O  0.40105893  0.93572047  0.28456771    -0.60500
H733        H  0.38196368  0.82865277  0.21129555     0.16400
O734        O  0.37827458  0.85502295  0.13323065    -0.60600
H735        H  0.35117731  0.85334495  0.13262618     0.43400
H736        H  0.42771898  0.93922762  0.28897997     0.43300
C737        C  0.71526826  0.45798080  0.86445350    -0.05700
C738        C  0.73677243  0.48697333  0.84887993    -0.33100
C739        C  0.77510740  0.48556186  0.85168855     0.36100
C740        C  0.79250499  0.45464872  0.86968246    -0.06100
C741        C  0.77094432  0.42688198  0.88819689    -0.33000
C742        C  0.73254856  0.42848908  0.88582111     0.36000
H743        H  0.72393962  0.50940488  0.83143833     0.16400
O744        O  0.79540916  0.51254035  0.83214454    -0.60500
H745        H  0.78388278  0.40257249  0.90129305     0.16400
O746        O  0.71218469  0.39978272  0.90138898    -0.60600
H747        H  0.71000485  0.38253178  0.87646888     0.43400
H748        H  0.80201149  0.52950429  0.85620928     0.43300
C749        C  0.62482508  0.37663486  0.67130542    -0.05700
C750        C  0.63693723  0.41292119  0.67442592    -0.33100
C751        C  0.63717501  0.43125243  0.71475253     0.36100
C752        C  0.62420270  0.41380679  0.75319317    -0.06100
C753        C  0.60957890  0.37823382  0.74884607    -0.33000
C754        C  0.60995417  0.35979909  0.70871067     0.36000
H755        H  0.64855988  0.42649993  0.64609200     0.16400
O756        O  0.65162101  0.46582825  0.71656822    -0.60500
H757        H  0.59947615  0.36293546  0.77639874     0.16400
O758        O  0.59695570  0.32465361  0.70700888    -0.60600
H759        H  0.61687141  0.30931751  0.71930275     0.43400
H760        H  0.67851194  0.46254419  0.71606839     0.43300
C761        C  0.52709703  0.27352658  0.04703828    -0.05700
C762        C  0.55704516  0.25459443  0.02967318    -0.33100
C763        C  0.55840085  0.21620209  0.03101344     0.36100
C764        C  0.52939450  0.19605096  0.04950503    -0.06100
C765        C  0.49794846  0.21487169  0.06281776    -0.33000
C766        C  0.49660846  0.25326782  0.06148775     0.36000
H767        H  0.58102442  0.26964455  0.01919843     0.16400
O768        O  0.58952547  0.19874441  0.01768110    -0.60500
H769        H  0.47569793  0.19995226  0.07794770     0.16400
O770        O  0.46728745  0.27076660  0.07962480    -0.60600
H771        H  0.45349491  0.28114560  0.05438621     0.43400
H772        H  0.60662304  0.20009605  0.04308404     0.43300
C773        C  0.57466701  0.35830250  0.16187454    -0.05700
C774        C  0.55687693  0.36656387  0.20172526    -0.33100
C775        C  0.57537920  0.36460035  0.24233673     0.36100
C776        C  0.61248265  0.35443243  0.24408115    -0.06100
C777        C  0.63051231  0.34731260  0.20450224    -0.33000
C778        C  0.61203300  0.34845468  0.16418376     0.36000
H779        H  0.52812632  0.37292364  0.20252027     0.16400
O780        O  0.55662796  0.37204259  0.28009730    -0.60500
H781        H  0.65894085  0.33905097  0.20475540     0.16400
O782        O  0.63081478  0.33896824  0.12711119    -0.60600
H783        H  0.62920648  0.31204924  0.12563110     0.43400
H784        H  0.54346815  0.34913879  0.28745109     0.43300
C785        C  0.57339288  0.38543203  0.99848379    -0.05700
C786        C  0.58262568  0.36168074  0.96452628    -0.33100
C787        C  0.59965686  0.37465622  0.92631169     0.36100
C788        C  0.60670136  0.41251591  0.92078437    -0.06100
C789        C  0.59877690  0.43588736  0.95601716    -0.33000
C790        C  0.58209452  0.42272526  0.99428606     0.36000
H791        H  0.57757834  0.33267634  0.96817660     0.16400
O792        O  0.61148967  0.34974100  0.89603900    -0.60500
H793        H  0.60439476  0.46479952  0.95379576     0.16400
O794        O  0.57398295  0.44669573  0.02726657    -0.60600
H795        H  0.54959145  0.45669729  0.01947497     0.43400
H796        H  0.58909354  0.33778124  0.88436606     0.43300
C797        C  0.29307964  0.50539393  0.05296794    -0.05700
C798        C  0.27240821  0.53618732  0.04120873    -0.33100
C799        C  0.23419804  0.53583041  0.04463558     0.36100
C800        C  0.21604715  0.50419470  0.05921694    -0.06100
C801        C  0.23636135  0.47235024  0.06699259    -0.33000
C802        C  0.27470859  0.47279141  0.06382553     0.36000
H803        H  0.28614117  0.56171250  0.03386884     0.16400
O804        O  0.21507563  0.56742981  0.03723532    -0.60500
H805        H  0.22276457  0.44801358  0.07900756     0.16400
O806        O  0.29415509  0.44267575  0.07689964    -0.60600
H807        H  0.30062473  0.43000934  0.04933535     0.43400
H808        H  0.21484533  0.58021185  0.06586705     0.43300
C809        C  0.40778259  0.44210706  0.07020348    -0.05700
C810        C  0.43251931  0.44121021  0.03508470    -0.33100
C811        C  0.45982776  0.41418143  0.03313743     0.36100
C812        C  0.46286678  0.38787040  0.06694054    -0.06100
C813        C  0.43532887  0.38640579  0.09891144    -0.33000
C814        C  0.40791979  0.41296689  0.10052793     0.36000
H815        H  0.43281349  0.46326854  0.01131302     0.16400
O816        O  0.48577122  0.41641946  0.00099680    -0.60500
H817        H  0.43669220  0.36607675  0.12478711     0.16400
O818        O  0.38323292  0.41192143  0.13422881    -0.60600
H819        H  0.35986404  0.40396280  0.12057922     0.43400
H820        H  0.47583197  0.40175935  0.97629801     0.43300
C821        C  0.48811507  0.69415300  0.87373074    -0.05700
C822        C  0.46350607  0.71489329  0.89857017    -0.33100
C823        C  0.46529674  0.75331911  0.89813731     0.36100
C824        C  0.49197350  0.77128971  0.87273986    -0.06100
C825        C  0.51837359  0.75039276  0.85118028    -0.33000
C826        C  0.51659652  0.71218972  0.85157082     0.36000
H827        H  0.44094480  0.70148391  0.91499952     0.16400
O828        O  0.43896499  0.77303162  0.91935356    -0.60500
H829        H  0.53841870  0.76378041  0.83055426     0.16400
O830        O  0.53997305  0.69282881  0.82553071    -0.60600
H831        H  0.56262944  0.69002180  0.84328723     0.43400
H832        H  0.41900588  0.77637649  0.89750576     0.43300
C833        C  0.54557498  0.57731129  0.85662392    -0.05700
C834        C  0.54005483  0.54465605  0.87959877    -0.33100
C835        C  0.56538730  0.51622202  0.87744816     0.36100
C836        C  0.59731148  0.52009568  0.85223315    -0.06100
C837        C  0.60359991  0.55329035  0.83028555    -0.33000
C838        C  0.57799743  0.58179167  0.83236220     0.36000
H839        H  0.51401302  0.53938747  0.89499305     0.16400
O840        O  0.55651089  0.48334692  0.89606830    -0.60500
H841        H  0.62725189  0.55623739  0.80931779     0.16400
O842        O  0.58313657  0.61246520  0.80722202    -0.60600
H843        H  0.59749112  0.62932004  0.82607758     0.43400
H844        H  0.54230184  0.47006606  0.87328468     0.43300
C845        C  0.43883320  0.58196187  0.92808648    -0.05700
C846        C  0.40055286  0.57727450  0.93133731    -0.33100
C847        C  0.38448984  0.56181382  0.96872517     0.36100
C848        C  0.40635450  0.55144892  0.00461820    -0.06100
C849        C  0.44426683  0.55689528  0.00247533    -0.33000
C850        C  0.46071068  0.57143397  0.96455927     0.36000
H851        H  0.38258669  0.58615662  0.90504771     0.16400
O852        O  0.34713981  0.55877352  0.97076746    -0.60500
H853        H  0.46138194  0.54921687  0.03017786     0.16400
O854        O  0.49803969  0.57529737  0.96386714    -0.60600
H855        H  0.50827831  0.55078836  0.97046301     0.43400
H856        H  0.34119219  0.53537769  0.95618899     0.43300
C857        C  0.39536891  0.60744467  0.68315131    -0.05700
C858        C  0.37876211  0.61916508  0.72198758    -0.33100
C859        C  0.39816406  0.62000688  0.76173190     0.36100
C860        C  0.43487996  0.60803170  0.76391686    -0.06100
C861        C  0.45105762  0.59536168  0.72479736    -0.33000
C862        C  0.43171917  0.59512821  0.68493830     0.36000
H863        H  0.35108691  0.62965467  0.72125569     0.16400
O864        O  0.38167056  0.63485650  0.79782952    -0.60500
H865        H  0.47918823  0.58691850  0.72356827     0.16400
O866        O  0.44929414  0.58425723  0.64758046    -0.60600
H867        H  0.44406381  0.55777925  0.64505078     0.43400
H868        H  0.36409228  0.61611354  0.80812447     0.43300
C869        C  0.37378446  0.58545303  0.25102557    -0.05700
C870        C  0.36922613  0.60534490  0.21195841    -0.33100
C871        C  0.37011633  0.58825870  0.17108139     0.36100
C872        C  0.37797113  0.55058311  0.16787907    -0.06100
C873        C  0.38196662  0.53054535  0.20734441    -0.33000
C874        C  0.37981022  0.54758873  0.24844995     0.36000
H875        H  0.36317282  0.63425102  0.21297152     0.16400
O876        O  0.36206919  0.60866663  0.13445169    -0.60500
H877        H  0.38495391  0.50125080  0.20705009     0.16400
O878        O  0.38181522  0.52659132  0.28574888    -0.60600
H879        H  0.40831016  0.52388013  0.29197863     0.43400
H880        H  0.33503994  0.60748415  0.13129705     0.43300
loop_ 
_geom_bond_atom_site_label_1 
_geom_bond_atom_site_label_2 
_geom_bond_distance 
_geom_bond_site_symmetry_2 
_ccdc_geom_bond_type 
In1           O3   2.289       .  S
In1           O4   2.211       .  S
In1          O12   2.264       .  S
In1           O6   2.227       .  S
In1           O8   2.248       .  S
In1           O9   2.257       .  S
In1          O10   2.238       .  S
In1          O13   2.245       .  S
C2            O8   1.261       .  A
C2           O10   1.258       .  A
C2           C15   1.461       .  S
O3           C11   1.265       .  A
O4           C11   1.256       .  A
C5           O12   1.262       .  A
C5            O6   1.259       .  A
C5          C869   1.483       .  S
C7            O9   1.259       .  A
C7           O13   1.258       .  A
C7          C211   1.460       .  S
C11         C107   1.465       .  S
In14         O16   2.289       .  S
In14         O17   2.217       .  S
In14         O25   2.236       .  S
In14         O19   2.255       .  S
In14         O21   2.240       .  S
In14         O22   2.257       .  S
In14         O23   2.249       .  S
In14         O26   2.234       .  S
C15          O21   1.258       .  A
C15          O23   1.262       .  A
O16          C24   1.264       .  A
O17          C24   1.255       .  A
C18          O25   1.259       .  A
C18          O19   1.262       .  A
C18         C857   1.480       .  S
C20          O22   1.260       .  A
C20          O26   1.258       .  A
C20         C124   1.457       .  S
C24         C220   1.466       .  S
C27          C28   1.537       .  S
C27          C33   1.528       .  S
C27          C31   1.539       .  S
C27         C860   1.536       .  S
C28          H35   1.082       .  S
C28          C29   1.362       .  D
C29          C30   1.550       .  S
C29         C833   1.483       .  S
C30          C34   1.549       .  S
C30          C32   1.555       .  S
C30          H36   1.107       .  S
C31          H37   1.085       .  S
C31          C32   1.375       .  D
C32         C845   1.509       .  S
C33          H38   1.087       .  S
C33          C34   1.361       .  D
C34         C821   1.486       .  S
C39          C40   1.539       .  S
C39          C45   1.524       .  S
C39          C43   1.542       .  S
C39         C872   1.533       .  S
C40          H47   1.084       .  S
C40          C41   1.371       .  D
C41          C42   1.549       .  S
C41         C809   1.494       .  S
C42          C46   1.547       .  S
C42          C44   1.546       .  S
C42          H48   1.110       .  S
C43          H49   1.086       .  S
C43          C44   1.367       .  D
C44         C848   1.485       .  S
C45          H50   1.088       .  S
C45          C46   1.358       .  D
C46         C797   1.482       .  S
C51          C52   1.540       .  S
C51          C57   1.530       .  S
C51          C55   1.539       .  S
C51         C773   1.540       .  S
C52          H59   1.086       .  S
C52          C53   1.366       .  D
C53          C54   1.548       .  S
C53         C785   1.486   1_554  S
C54          C58   1.551       .  S
C54          C56   1.554       .  S
C54          H60   1.110       .  S
C55          H61   1.083       .  S
C55          C56   1.371       .  D
C56         C812   1.498       .  S
C57          H62   1.087       .  S
C57          C58   1.361       .  D
C58         C761   1.492       .  S
C63          C64   1.546       .  S
C63          C69   1.532       .  S
C63          C67   1.532       .  S
C63         C752   1.539       .  S
C64          H71   1.076       .  S
C64          C65   1.369       .  D
C65          C66   1.549       .  S
C65         C788   1.506       .  S
C66          C70   1.544       .  S
C66          C68   1.553       .  S
C66          H72   1.108       .  S
C67          H73   1.087       .  S
C67          C68   1.367       .  D
C68         C836   1.486       .  S
C69          H74   1.087       .  S
C69          C70   1.362       .  D
C70         C737   1.485       .  S
In75         O77   2.235       .  S
In75         O78   2.260       .  S
In75         O86   2.233       .  S
In75         O80   2.289       .  S
In75         O82   2.244       .  S
In75         O83   2.205       .  S
In75         O84   2.250       .  S
In75         O87   2.291       .  S
C76          O82   1.259       .  A
C76          O84   1.263       .  A
C76          C89   1.464       .  S
O77          C85   1.257       .  A
O78          C85   1.261       .  A
C79          O86   1.255       .  A
C79          O80   1.262       .  A
C79         C776   1.489       .  S
C81          O83   1.256       .  A
C81          O87   1.267       .  A
C81         C285   1.466       .  S
C85         C181   1.460       .  S
In88         O90   2.235       .  S
In88         O91   2.254       .  S
In88         O99   2.248       .  S
In88         O93   2.253       .  S
In88         O95   2.252       .  S
In88         O96   2.226       .  S
In88         O97   2.240       .  S
In88        O100   2.272       .  S
C89          O95   1.262       .  A
C89          O97   1.258       .  A
O90          C98   1.258       .  A
O91          C98   1.261       .  A
C92          O99   1.257       .  A
C92          O93   1.258       .  A
C92         C749   1.482       .  S
C94          O96   1.258       .  A
C94         O100   1.263       .  A
C94         C198   1.463       .  S
C98         C294   1.458       .  S
In101       O103   2.253       .  S
In101       O104   2.248       .  S
In101       O112   2.228       .  S
In101       O106   2.279       .  S
In101       O108   2.262       .  S
In101       O109   2.208       .  S
In101       O110   2.242       .  S
In101       O113   2.283       .  S
C102        O108   1.262       .  A
C102        O110   1.257       .  A
C102        C115   1.465       .  S
O103        C111   1.258       .  A
O104        C111   1.257       .  A
C105        O112   1.254       .  A
C105        O106   1.259       .  A
C105        C728   1.481       .  S
C107        O109   1.258       .  A
C107        O113   1.266       .  A
C111        C381   1.459       .  S
In114       O116   2.233       .  S
In114       O117   2.255       .  S
In114       O125   2.256       .  S
In114       O119   2.253       .  S
In114       O121   2.249       .  S
In114       O122   2.239       .  S
In114       O123   2.250       .  S
In114       O126   2.275       .  S
C115        O121   1.258       .  A
C115        O123   1.261       .  A
O116        C124   1.258       .  A
O117        C124   1.261       .  A
C118        O125   1.259       .  A
C118        O119   1.257       .  A
C118        C713   1.484       .  S
C120        O122   1.258       .  A
C120        O126   1.261       .  A
C120        C398   1.468       .  S
C127        C128   1.538       .  S
C127        C133   1.529       .  S
C127        C131   1.539       .  S
C127        C725   1.533       .  S
C128        H135   1.086       .  S
C128        C129   1.365       .  D
C129        C130   1.545       .  S
C129        C701   1.483       .  S
C130        C134   1.547       .  S
C130        C132   1.550       .  S
C130        H136   1.110       .  S
C131        H137   1.083       .  S
C131        C132   1.370       .  D
C132        C689   1.494   1_565  S
C133        H138   1.087       .  S
C133        C134   1.361       .  D
C134        C680   1.486       .  S
C139        C140   1.545       .  S
C139        C145   1.533       .  S
C139        C143   1.527       .  S
C139        C716   1.536       .  S
C140        H147   1.077       .  S
C140        C141   1.373       .  D
C141        C142   1.551       .  S
C141        C704   1.502       .  S
C142        C146   1.544       .  S
C142        C144   1.551       .  S
C142        H148   1.109       .  S
C143        H149   1.086       .  S
C143        C144   1.365       .  D
C144        C665   1.487       .  S
C145        H150   1.087       .  S
C145        C146   1.361       .  D
C146        C824   1.485       .  S
C151        C152   1.535   1_545  S
C151        C157   1.531       .  S
C151        C155   1.535       .  S
C151        C641   1.529       .  S
C152        H159   1.082       .  S
C152        C153   1.368       .  D
C153        C154   1.551       .  S
C153        C668   1.487       .  S
C154        C158   1.547   1_565  S
C154        C156   1.549   1_565  S
C154        H160   1.110       .  S
C155        H161   1.086       .  S
C155        C156   1.365       .  D
C156        C653   1.489       .  S
C157        H162   1.087       .  S
C157        C158   1.361       .  D
C158        C632   1.487       .  S
C163        C164   1.535       .  S
C163        C169   1.534       .  S
C163        C167   1.535       .  S
C163        C617   1.539       .  S
C164        H171   1.081       .  S
C164        C165   1.366       .  D
C165        C166   1.554       .  S
C165        C692   1.494       .  S
C166        C170   1.551       .  S
C166        C168   1.562       .  S
C166        H172   1.104       .  S
C167        H173   1.084       .  S
C167        C168   1.373       .  D
C168        C656   1.517   1_554  S
C169        H174   1.087       .  S
C169        C170   1.363       .  D
C170        C764   1.495       .  S
In175       O177   2.272       .  S
In175       O178   2.225       .  S
In175       O186   2.227       .  S
In175       O180   2.279       .  S
In175       O182   2.252       .  S
In175       O183   2.258       .  S
In175       O184   2.245       .  S
In175       O187   2.240       .  S
C176        O182   1.262       .  A
C176        O184   1.258       .  A
C176        C189   1.464       .  S
O177        C185   1.264       .  A
O178        C185   1.260       .  A
C179        O186   1.255       .  A
C179        O180   1.261       .  A
C179        C620   1.482       .  S
C181        O183   1.259       .  A
C181        O187   1.258       .  A
C185        C307   1.466       .  S
In188       O190   2.271       .  S
In188       O191   2.217       .  S
In188       O199   2.202       .  S
In188       O193   2.281       .  S
In188       O195   2.243       .  S
In188       O196   2.209       .  S
In188       O197   2.250       .  S
In188       O200   2.259       .  S
C189        O195   1.258       .  A
C189        O197   1.262       .  A
O190        C198   1.265       .  A
O191        C198   1.258       .  A
C192        O199   1.253       .  A
C192        O193   1.263       .  A
C192        C644   1.478       .  S
C194        O196   1.257       .  A
C194        O200   1.262       .  A
C194        C324   1.452       .  S
In201       O203   2.243       .  S
In201       O204   2.254       .  S
In201       O212   2.244       .  S
In201       O206   2.258       .  S
In201       O208   2.253       .  S
In201       O209   2.234       .  S
In201       O210   2.238       .  S
In201       O213   2.275       .  S
C202        O208   1.259       .  A
C202        O210   1.260       .  A
C202        C215   1.462       .  S
O203        C211   1.258       .  A
O204        C211   1.260       .  A
C205        O212   1.258       .  A
C205        O206   1.257       .  A
C205        C605   1.481       .  S
C207        O209   1.259       .  A
C207        O213   1.262       .  A
C207        C385   1.468       .  S
In214       O216   2.241       .  S
In214       O217   2.239       .  S
In214       O225   2.242       .  S
In214       O219   2.265       .  S
In214       O221   2.264       .  S
In214       O222   2.220       .  S
In214       O223   2.231       .  S
In214       O226   2.286       .  S
C215        O221   1.262       .  A
C215        O223   1.255       .  A
O216        C224   1.259       .  A
O217        C224   1.260       .  A
C218        O225   1.255       .  A
C218        O219   1.257       .  A
C218        C596   1.481       .  S
C220        O222   1.257       .  A
C220        O226   1.265       .  A
C224        C394   1.453       .  S
C227        C228   1.543       .  S
C227        C233   1.532       .  S
C227        C231   1.526       .  S
C227        C593   1.537       .  S
C228        H235   1.077       .  S
C228        C229   1.373       .  D
C229        C230   1.555       .  S
C229        C581   1.510       .  S
C230        C234   1.545       .  S
C230        C232   1.552   1_455  S
C230        H236   1.104       .  S
C231        H237   1.087   1_455  S
C231        C232   1.364   1_455  D
C232        C572   1.486       .  S
C233        H238   1.087       .  S
C233        C234   1.362       .  D
C234        C560   1.488       .  S
C239        C240   1.544       .  S
C239        C245   1.538       .  S
C239        C243   1.529       .  S
C239        C608   1.536       .  S
C240        H247   1.079       .  S
C240        C241   1.362       .  D
C241        C242   1.542       .  S
C241        C584   1.486       .  S
C242        C246   1.541       .  S
C242        C244   1.541       .  S
C242        H248   1.110       .  S
C243        H249   1.087       .  S
C243        C244   1.365       .  D
C244        C548   1.475       .  S
C245        H250   1.086       .  S
C245        C246   1.367       .  D
C246        C800   1.482       .  S
C251        C252   1.537   1_655  S
C251        C257   1.530       .  S
C251        C255   1.533       .  S
C251        C521   1.531       .  S
C252        H259   1.083       .  S
C252        C253   1.371       .  D
C253        C254   1.547   1_455  S
C253        C545   1.479       .  S
C254        C258   1.539       .  S
C254        C256   1.550       .  S
C254        H260   1.109   1_655  S
C255        H261   1.084       .  S
C255        C256   1.366       .  D
C256        C533   1.498       .  S
C257        H262   1.087       .  S
C257        C258   1.362       .  D
C258        C509   1.482       .  S
C263        C264   1.538       .  S
C263        C269   1.530       .  S
C263        C267   1.543       .  S
C263        C497   1.536       .  S
C264        H271   1.086       .  S
C264        C265   1.370       .  D
C265        C266   1.544       .  S
C265        C569   1.489       .  S
C266        C270   1.548       .  S
C266        C268   1.543       .  S
C266        H272   1.111       .  S
C267        H273   1.080       .  S
C267        C268   1.364       .  D
C268        C536   1.481       .  S
C269        H274   1.087       .  S
C269        C270   1.361       .  D
C270        C740   1.485       .  S
In275       O277   2.289       .  S
In275       O278   2.208       .  S
In275       O286   2.217       .  S
In275       O280   2.277       .  S
In275       O282   2.248       .  S
In275       O283   2.262       .  S
In275       O284   2.246       .  S
In275       O287   2.223       .  S
C276        O282   1.261       .  A
C276        O284   1.258       .  A
C276        C289   1.463       .  S
O277        C285   1.265       .  A
O278        C285   1.257       .  A
C279        O286   1.255       .  A
C279        O280   1.262       .  A
C279        C524   1.481       .  S
C281        O283   1.261       .  A
C281        O287   1.258       .  A
C281        C311   1.458       .  S
In288       O290   2.272       .  S
In288       O291   2.225       .  S
In288       O299   2.245       .  S
In288       O293   2.254       .  S
In288       O295   2.246       .  S
In288       O296   2.253       .  S
In288       O297   2.253       .  S
In288       O300   2.239       .  S
C289        O295   1.258       .  A
C289        O297   1.260       .  A
O290        C298   1.262       .  A
O291        C298   1.257       .  A
C292        O299   1.257       .  A
C292        O293   1.259       .  A
C292        C500   1.481       .  S
C294        O296   1.260       .  A
C294        O300   1.259       .  A
C298        C320   1.462       .  S
In301       O303   2.224       .  S
In301       O304   2.268       .  S
In301       O312   2.223       .  S
In301       O306   2.285       .  S
In301       O308   2.248       .  S
In301       O309   2.223       .  S
In301       O310   2.241       .  S
In301       O313   2.271       .  S
C302        O308   1.262       .  A
C302        O310   1.259       .  A
C302        C315   1.463       .  S
O303        C311   1.256       .  A
O304        C311   1.261       .  A
C305        O312   1.255       .  A
C305        O306   1.260       .  A
C305        C488   1.483       .  S
C307        O309   1.260       .  A
C307        O313   1.265       .  A
In314       O316   2.262       .  S
In314       O317   2.213       .  S
In314       O325   2.230       .  S
In314       O319   2.265       .  S
In314       O321   2.245       .  S
In314       O322   2.216       .  S
In314       O323   2.253       .  S
In314       O326   2.268       .  S
C315        O321   1.257       .  A
C315        O323   1.261       .  A
O316        C324   1.261       .  A
O317        C324   1.257       .  A
C318        O325   1.255       .  A
C318        O319   1.260       .  A
C318        C473   1.480       .  S
C320        O322   1.259       .  A
C320        O326   1.266       .  A
C327        C328   1.536       .  S
C327        C333   1.526       .  S
C327        C331   1.538       .  S
C327        C440   1.535       .  S
C328        H335   1.085       .  S
C328        C329   1.368       .  D
C329        C330   1.548       .  S
C329        C452   1.485   1_565  S
C330        C334   1.548       .  S
C330        C332   1.546       .  S
C330        H336   1.108       .  S
C331        H337   1.085       .  S
C331        C332   1.369       .  D
C332        C461   1.492   1_554  S
C333        H338   1.087       .  S
C333        C334   1.362       .  D
C334        C677   1.487       .  S
C339        C340   1.540       .  S
C339        C345   1.530       .  S
C339        C343   1.535       .  S
C339        C416   1.531       .  S
C340        H347   1.084       .  S
C340        C341   1.371       .  D
C341        C342   1.550       .  S
C341        C425   1.491   1_455  S
C342        C346   1.549       .  S
C342        C344   1.546       .  S
C342        H348   1.111       .  S
C343        H349   1.086       .  S
C343        C344   1.360       .  D
C344        C464   1.477       .  S
C345        H350   1.087       .  S
C345        C346   1.361       .  D
C346        C557   1.488       .  S
C351        C352   1.537       .  S
C351        C357   1.529       .  S
C351        C355   1.538   1_545  S
C351        C476   1.531       .  S
C352        H359   1.086       .  S
C352        C353   1.365       .  D
C353        C354   1.544   1_545  S
C353        C401   1.478       .  S
C354        C358   1.546   1_565  S
C354        C356   1.547       .  S
C354        H360   1.111       .  S
C355        H361   1.083       .  S
C355        C356   1.368       .  D
C356        C428   1.487       .  S
C357        H362   1.087       .  S
C357        C358   1.361       .  D
C358        C629   1.486       .  S
C363        C364   1.541       .  S
C363        C369   1.521       .  S
C363        C367   1.537   1_655  S
C363        C485   1.531       .  S
C364        H371   1.086       .  S
C364        C365   1.369       .  D
C365        C366   1.545   1_655  S
C365        C404   1.493       .  S
C366        C370   1.547   1_455  S
C366        C368   1.549       .  S
C366        H372   1.109       .  S
C367        H373   1.084       .  S
C367        C368   1.372       .  D
C368        C449   1.484       .  S
C369        H374   1.088       .  S
C369        C370   1.359       .  D
C370        C512   1.484       .  S
In375       O377   2.275       .  S
In375       O378   2.219       .  S
In375       O386   2.242       .  S
In375       O380   2.273       .  S
In375       O382   2.306       .  S
In375       O383   2.245       .  S
In375       O384   2.197       .  S
In375       O387   2.248       .  S
C376        O382   1.268       .  A
C376        O384   1.255       .  A
C376        C389   1.470       .  S
O377        C385   1.267       .  A
O378        C385   1.260       .  A
C379        O386   1.257       .  A
C379        O380   1.259       .  A
C379        C437   1.482       .  S
C381        O383   1.258       .  A
C381        O387   1.257       .  A
In388       O390   2.273       .  S
In388       O391   2.218       .  S
In388       O399   2.228       .  S
In388       O393   2.272       .  S
In388       O395   2.304       .  S
In388       O396   2.234       .  S
In388       O397   2.197       .  S
In388       O400   2.243       .  S
C389        O395   1.268       .  A
C389        O397   1.256       .  A
O390        C398   1.268       .  A
O391        C398   1.260       .  A
C392        O399   1.256       .  A
C392        O393   1.260       .  A
C392        C413   1.478       .  S
C394        O396   1.257       .  A
C394        O400   1.258       .  A
C401        C402   1.402       .  A
C401        C406   1.403       .  A
C402        C403   1.403       .  A
C402        H407   1.084       .  S
C403        C404   1.412   1_556  A
C403        O408   1.371   1_655  S
C404        C405   1.409   1_554  A
C405        C406   1.400       .  A
C405        H409   1.083   1_556  S
C406        O410   1.371       .  S
O408        H412   0.992       .  S
O410        H411   0.991       .  S
C413        C414   1.401       .  A
C413        C418   1.406       .  A
C414        C415   1.393       .  A
C414        H419   1.084       .  S
C415        C416   1.416       .  A
C415        O420   1.373       .  S
C416        C417   1.414       .  A
C417        C418   1.406       .  A
C417        H421   1.079       .  S
C418        O422   1.372       .  S
O420        H424   0.991       .  S
O422        H423   0.991       .  S
C425        C426   1.404       .  A
C425        C430   1.412       .  A
C426        C427   1.400       .  A
C426        H431   1.084       .  S
C427        C428   1.409       .  A
C427        O432   1.372       .  S
C428        C429   1.403       .  A
C429        C430   1.408       .  A
C429        H433   1.084       .  S
C430        O434   1.371       .  S
O432        H436   0.991       .  S
O434        H435   0.992   1_655  S
C437        C438   1.402       .  A
C437        C442   1.407       .  A
C438        C439   1.397       .  A
C438        H443   1.084       .  S
C439        C440   1.417       .  A
C439        O444   1.372       .  S
C440        C441   1.413       .  A
C441        C442   1.405       .  A
C441        H445   1.080       .  S
C442        O446   1.372       .  S
O444        H448   0.991       .  S
O446        H447   0.992       .  S
C449        C450   1.402       .  A
C449        C454   1.407       .  A
C450        C451   1.395       .  A
C450        H455   1.084       .  S
C451        C452   1.410       .  A
C451        O456   1.372   1_545  S
C452        C453   1.405       .  A
C453        C454   1.409       .  A
C453        H457   1.083       .  S
C454        O458   1.371       .  S
O456        H460   0.991       .  S
O458        H459   0.991       .  S
C461        C462   1.409       .  A
C461        C466   1.411       .  A
C462        C463   1.398       .  A
C462        H467   1.083   1_556  S
C463        C464   1.401       .  A
C463        O468   1.370       .  S
C464        C465   1.403       .  A
C465        C466   1.402       .  A
C465        H469   1.083       .  S
C466        O470   1.371       .  S
O468        H472   0.993       .  S
O470        H471   0.991       .  S
C473        C474   1.403       .  A
C473        C478   1.407       .  A
C474        C475   1.396       .  A
C474        H479   1.084       .  S
C475        C476   1.415       .  A
C475        O480   1.372       .  S
C476        C477   1.413       .  A
C477        C478   1.401       .  A
C477        H481   1.078   1_545  S
C478        O482   1.371       .  S
O480        H484   0.992       .  S
O482        H483   0.991       .  S
C485        C486   1.413       .  A
C485        C490   1.414       .  A
C486        C487   1.407       .  A
C486        H491   1.079       .  S
C487        C488   1.409       .  A
C487        O492   1.371       .  S
C488        C489   1.402       .  A
C489        C490   1.393       .  A
C489        H493   1.084       .  S
C490        O494   1.373       .  S
O492        H496   0.990       .  S
O494        H495   0.992       .  S
C497        C498   1.412       .  A
C497        C502   1.417       .  A
C498        C499   1.399       .  A
C498        H503   1.075       .  S
C499        C500   1.407       .  A
C499        O504   1.372       .  S
C500        C501   1.402       .  A
C501        C502   1.401       .  A
C501        H505   1.084       .  S
C502        O506   1.373       .  S
O504        H508   0.990       .  S
O506        H507   0.993       .  S
C509        C510   1.402       .  A
C509        C514   1.409   1_655  A
C510        C511   1.396       .  A
C510        H515   1.084       .  S
C511        C512   1.411       .  A
C511        O516   1.373       .  S
C512        C513   1.404   1_655  A
C513        C514   1.409       .  A
C513        H517   1.083       .  S
C514        O518   1.371       .  S
O516        H520   0.990       .  S
O518        H519   0.992       .  S
C521        C522   1.412       .  A
C521        C526   1.416       .  A
C522        C523   1.407       .  A
C522        H527   1.079       .  S
C523        C524   1.409       .  A
C523        O528   1.371       .  S
C524        C525   1.401       .  A
C525        C526   1.393       .  A
C525        H529   1.084       .  S
C526        O530   1.373       .  S
O528        H532   0.992       .  S
O530        H531   0.993       .  S
C533        C534   1.405   1_554  A
C533        C538   1.420   1_554  A
C534        C535   1.400       .  A
C534        H539   1.080       .  S
C535        C536   1.409       .  A
C535        O540   1.373       .  S
C536        C537   1.396       .  A
C537        C538   1.402       .  A
C537        H541   1.084       .  S
C538        O542   1.372   1_556  S
O540        H544   0.993       .  S
O542        H543   0.992       .  S
C545        C546   1.402       .  A
C545        C550   1.408       .  A
C546        C547   1.397       .  A
C546        H551   1.079       .  S
C547        C548   1.405       .  A
C547        O552   1.371       .  S
C548        C549   1.404       .  A
C549        C550   1.399       .  A
C549        H553   1.084       .  S
C550        O554   1.371       .  S
O552        H556   0.992   1_554  S
O554        H555   0.992       .  S
C557        C558   1.405       .  A
C557        C562   1.410   1_455  A
C558        C559   1.406       .  A
C558        H563   1.082       .  S
C559        C560   1.409       .  A
C559        O564   1.372       .  S
C560        C561   1.403   1_455  A
C561        C562   1.405       .  A
C561        H565   1.084       .  S
C562        O566   1.372       .  S
O564        H568   0.992       .  S
O566        H567   0.991       .  S
C569        C570   1.403       .  A
C569        C574   1.411       .  A
C570        C571   1.402       .  A
C570        H575   1.084       .  S
C571        C572   1.409       .  A
C571        O576   1.371       .  S
C572        C573   1.402       .  A
C573        C574   1.404       .  A
C573        H577   1.080       .  S
C574        O578   1.369       .  S
O576        H580   0.991       .  S
O578        H579   0.992       .  S
C581        C582   1.417       .  A
C581        C586   1.415       .  A
C582        C583   1.402       .  A
C582        H587   1.081       .  S
C583        C584   1.401   1_556  A
C583        O588   1.371       .  S
C584        C585   1.403       .  A
C585        C586   1.400   1_554  A
C585        H589   1.084       .  S
C586        O590   1.368       .  S
O588        H592   0.993       .  S
O590        H591   0.991       .  S
C593        C594   1.412       .  A
C593        C598   1.417       .  A
C594        C595   1.399       .  A
C594        H599   1.075       .  S
C595        C596   1.407       .  A
C595        O600   1.372       .  S
C596        C597   1.402       .  A
C597        C598   1.402       .  A
C597        H601   1.084       .  S
C598        O602   1.373       .  S
O600        H604   0.993       .  S
O602        H603   0.992   1_455  S
C605        C606   1.404       .  A
C605        C610   1.406       .  A
C606        C607   1.403       .  A
C606        H611   1.083       .  S
C607        C608   1.416       .  A
C607        O612   1.373       .  S
C608        C609   1.412       .  A
C609        C610   1.396       .  A
C609        H613   1.074       .  S
C610        O614   1.373       .  S
O612        H616   0.991       .  S
O614        H615   0.993       .  S
C617        C618   1.417       .  A
C617        C622   1.414       .  A
C618        C619   1.406       .  A
C618        H623   1.076       .  S
C619        C620   1.406       .  A
C619        O624   1.372       .  S
C620        C621   1.402       .  A
C621        C622   1.396       .  A
C621        H625   1.084       .  S
C622        O626   1.373       .  S
O624        H628   0.991       .  S
O626        H627   0.992       .  S
C629        C630   1.404       .  A
C629        C634   1.409   1_545  A
C630        C631   1.402       .  A
C630        H635   1.084       .  S
C631        C632   1.409       .  A
C631        O636   1.372       .  S
C632        C633   1.405   1_545  A
C633        C634   1.409       .  A
C633        H637   1.083       .  S
C634        O638   1.372       .  S
O636        H640   0.992       .  S
O638        H639   0.992       .  S
C641        C642   1.415       .  A
C641        C646   1.413       .  A
C642        C643   1.405       .  A
C642        H647   1.077   1_545  S
C643        C644   1.406       .  A
C643        O648   1.372       .  S
C644        C645   1.402       .  A
C645        C646   1.391       .  A
C645        H649   1.084       .  S
C646        O650   1.373       .  S
O648        H652   0.990       .  S
O650        H651   0.992       .  S
C653        C654   1.402       .  A
C653        C658   1.402       .  A
C654        C655   1.403       .  A
C654        H659   1.084       .  S
C655        C656   1.417       .  A
C655        O660   1.367       .  S
C656        C657   1.418       .  A
C657        C658   1.405       .  A
C657        H661   1.081   1_556  S
C658        O662   1.371       .  S
O660        H664   0.993       .  S
O662        H663   0.991       .  S
C665        C666   1.403       .  A
C665        C670   1.409       .  A
C666        C667   1.402       .  A
C666        H671   1.078       .  S
C667        C668   1.408       .  A
C667        O672   1.370       .  S
C668        C669   1.406       .  A
C669        C670   1.402       .  A
C669        H673   1.084       .  S
C670        O674   1.373       .  S
O672        H676   0.991       .  S
O674        H675   0.993       .  S
C677        C678   1.404       .  A
C677        C682   1.409       .  A
C678        C679   1.407       .  A
C678        H683   1.083   1_565  S
C679        C680   1.408       .  A
C679        O684   1.371   1_565  S
C680        C681   1.404       .  A
C681        C682   1.404       .  A
C681        H685   1.084       .  S
C682        O686   1.373       .  S
O684        H688   0.991       .  S
O686        H687   0.992       .  S
C689        C690   1.406       .  A
C689        C694   1.410       .  A
C690        C691   1.402       .  A
C690        H695   1.084       .  S
C691        C692   1.410       .  A
C691        O696   1.371       .  S
C692        C693   1.403       .  A
C693        C694   1.407       .  A
C693        H697   1.076       .  S
C694        O698   1.372   1_545  S
O696        H700   0.990       .  S
O698        H699   0.992       .  S
C701        C702   1.398   1_554  A
C701        C706   1.408   1_554  A
C702        C703   1.401       .  A
C702        H707   1.084       .  S
C703        C704   1.420       .  A
C703        O708   1.371       .  S
C704        C705   1.406       .  A
C705        C706   1.401       .  A
C705        H709   1.078       .  S
C706        O710   1.372   1_556  S
O708        H712   0.992       .  S
O710        H711   0.991       .  S
C713        C714   1.403       .  A
C713        C718   1.408       .  A
C714        C715   1.402       .  A
C714        H719   1.084       .  S
C715        C716   1.417       .  A
C715        O720   1.374       .  S
C716        C717   1.411       .  A
C717        C718   1.401       .  A
C717        H721   1.076       .  S
C718        O722   1.372       .  S
O720        H724   0.992       .  S
O722        H723   0.992       .  S
C725        C726   1.414       .  A
C725        C730   1.415       .  A
C726        C727   1.404       .  A
C726        H731   1.078       .  S
C727        C728   1.407       .  A
C727        O732   1.372       .  S
C728        C729   1.402       .  A
C729        C730   1.394       .  A
C729        H733   1.084       .  S
C730        O734   1.372       .  S
O732        H736   0.991       .  S
O734        H735   0.992       .  S
C737        C738   1.403       .  A
C737        C742   1.409       .  A
C738        C739   1.405       .  A
C738        H743   1.084       .  S
C739        C740   1.409       .  A
C739        O744   1.371       .  S
C740        C741   1.404       .  A
C741        C742   1.407       .  A
C741        H745   1.084       .  S
C742        O746   1.372       .  S
O744        H748   0.991       .  S
O746        H747   0.992       .  S
C749        C750   1.404       .  A
C749        C754   1.406       .  A
C750        C751   1.402       .  A
C750        H755   1.084       .  S
C751        C752   1.416       .  A
C751        O756   1.372       .  S
C752        C753   1.414       .  A
C753        C754   1.399       .  A
C753        H757   1.075       .  S
C754        O758   1.373       .  S
O756        H760   0.991       .  S
O758        H759   0.992       .  S
C761        C762   1.406       .  A
C761        C766   1.410       .  A
C762        C763   1.409       .  A
C762        H767   1.084       .  S
C763        C764   1.410       .  A
C763        O768   1.372       .  S
C764        C765   1.406       .  A
C765        C766   1.409       .  A
C765        H769   1.084       .  S
C766        O770   1.371       .  S
O768        H772   0.993       .  S
O770        H771   0.992       .  S
C773        C774   1.415       .  A
C773        C778   1.415       .  A
C774        C775   1.407       .  A
C774        H779   1.078       .  S
C775        C776   1.409       .  A
C775        O780   1.372       .  S
C776        C777   1.404       .  A
C777        C778   1.398       .  A
C777        H781   1.083       .  S
C778        O782   1.372       .  S
O780        H784   0.992       .  S
O782        H783   0.989       .  S
C785        C786   1.398       .  A
C785        C790   1.408       .  A
C786        C787   1.405       .  A
C786        H791   1.084       .  S
C787        C788   1.420       .  A
C787        O792   1.373       .  S
C788        C789   1.408       .  A
C789        C790   1.403       .  A
C789        H793   1.081       .  S
C790        O794   1.371   1_556  S
O792        H796   0.992       .  S
O794        H795   0.992       .  S
C797        C798   1.404       .  A
C797        C802   1.408       .  A
C798        C799   1.402       .  A
C798        H803   1.084       .  S
C799        C800   1.406       .  A
C799        O804   1.372       .  S
C800        C801   1.404       .  A
C801        C802   1.406       .  A
C801        H805   1.084       .  S
C802        O806   1.371       .  S
O804        H808   0.992       .  S
O806        H807   0.991       .  S
C809        C810   1.406       .  A
C809        C814   1.410       .  A
C810        C811   1.410       .  A
C810        H815   1.084       .  S
C811        C812   1.412       .  A
C811        O816   1.370       .  S
C812        C813   1.406       .  A
C813        C814   1.400       .  A
C813        H817   1.084       .  S
C814        O818   1.372       .  S
O816        H820   0.992   1_554  S
O818        H819   0.991       .  S
C821        C822   1.406       .  A
C821        C826   1.407       .  A
C822        C823   1.410       .  A
C822        H827   1.084       .  S
C823        C824   1.410       .  A
C823        O828   1.372       .  S
C824        C825   1.402       .  A
C825        C826   1.401       .  A
C825        H829   1.084       .  S
C826        O830   1.371       .  S
O828        H832   0.992       .  S
O830        H831   0.992       .  S
C833        C834   1.399       .  A
C833        C838   1.410       .  A
C834        C835   1.398       .  A
C834        H839   1.081       .  S
C835        C836   1.408       .  A
C835        O840   1.369       .  S
C836        C837   1.405       .  A
C837        C838   1.407       .  A
C837        H841   1.084       .  S
C838        O842   1.371       .  S
O840        H844   0.992       .  S
O842        H843   0.991       .  S
C845        C846   1.414       .  A
C845        C850   1.418       .  A
C846        C847   1.402       .  A
C846        H851   1.082       .  S
C847        C848   1.402   1_556  A
C847        O852   1.372       .  S
C848        C849   1.402       .  A
C849        C850   1.408   1_554  A
C849        H853   1.084       .  S
C850        O854   1.372       .  S
O852        H856   0.990       .  S
O854        H855   0.994       .  S
C857        C858   1.403       .  A
C857        C862   1.406       .  A
C858        C859   1.399       .  A
C858        H863   1.084       .  S
C859        C860   1.415       .  A
C859        O864   1.373       .  S
C860        C861   1.415       .  A
C861        C862   1.401       .  A
C861        H865   1.076       .  S
C862        O866   1.372       .  S
O864        H868   0.991       .  S
O866        H867   0.992       .  S
C869        C870   1.403       .  A
C869        C874   1.408       .  A
C870        C871   1.396       .  A
C870        H875   1.084       .  S
C871        C872   1.415       .  A
C871        O876   1.372       .  S
C872        C873   1.413       .  A
C873        C874   1.404       .  A
C873        H877   1.080       .  S
C874        O878   1.372       .  S
O876        H880   0.993       .  S
O878        H879   0.991       .  S
