geometry optimzed in LAMMPS
_audit_creation_date              2020-11-30 
_audit_creation_method            'lammps2cif' 
_symmetry_space_group_name_H-M    'P1' 
_symmetry_Int_Tables_number       1 
_symmetry_cell_setting            triclinic 
loop_ 
_symmetry_equiv_pos_as_xyz 
  x,y,z 
_cell_length_a                    40.05068783 
_cell_length_b                    40.280836749771815 
_cell_length_c                    96.01320406914036 
_cell_angle_alpha                 90.37359622674403 
_cell_angle_beta                  89.56098511760251 
_cell_angle_gamma                 120.39450898434413 
loop_ 
_atom_site_label 
_atom_site_type_symbol 
_atom_site_fract_x 
_atom_site_fract_y 
_atom_site_fract_z 
_atom_site_charge 
C1          C  0.10901174  0.49817791  0.52749374     0.79700
N2          N  0.13467811  0.48744456  0.53167275    -0.78600
C3          C  0.13934546  0.46137779  0.52410419     0.82200
N4          N  0.11855743  0.44660283  0.51235700    -0.78500
C5          C  0.09325607  0.45704821  0.50793140     0.82300
N6          N  0.08840304  0.48293397  0.51554870    -0.80200
C7          C  0.90286694  0.54733479  0.44699260     0.79700
N8          N  0.92325346  0.56459975  0.45871082    -0.78600
C9          C  0.91771815  0.59116690  0.46556555     0.82200
N10         N  0.89179359  0.60047936  0.46054131    -0.78500
C11         C  0.87123114  0.58312814  0.44884202     0.82300
N12         N  0.87690645  0.55655042  0.44223586    -0.80200
Fe13       Fe  0.98938929  0.66696665  0.56858993     1.65800
Fe14       Fe  0.08228785  0.71560460  0.58046310     1.73200
Fe15       Fe  0.04830980  0.76109313  0.55963852     1.54400
O16         O  0.01990059  0.73123039  0.54164255    -0.82200
O17         O  0.09398472  0.76552073  0.59107126    -0.80500
O18         O  0.98700198  0.66924467  0.54735475    -0.84700
O19         O  0.95874650  0.69483837  0.57188114    -0.79500
O20         O  0.10013102  0.77177990  0.55076263    -0.81300
O21         O  0.04672423  0.68412793  0.59685731    -0.84100
C22         C  0.96667362  0.72953075  0.57257703     0.96700
C23         C  0.99923345  0.69586370  0.53841138     1.04100
O24         O  0.04019685  0.71467910  0.56952514    -1.13000
O25         O  0.07596959  0.66665202  0.57052057    -0.75500
O26         O  0.01332483  0.63265862  0.56532911    -0.79000
O27         O  0.99872293  0.75727200  0.56826188    -0.79600
C28         C  0.04693447  0.63682485  0.56545992     0.95600
O29         O  0.98605488  0.65958806  0.58970328    -0.77600
O30         O  0.12436067  0.74836208  0.56614985    -0.82800
C31         C  0.09406024  0.79572146  0.58714727     0.98200
C32         C  0.12789286  0.76856652  0.55557782     1.04200
O33         O  0.07859664  0.79719836  0.57585884    -0.78400
C34         C  0.01058052  0.66676717  0.59916588     1.02500
C35         C  0.25139439  0.22540646  0.11382807     0.79700
N36         N  0.27102614  0.23887458  0.12609468    -0.78600
C37         C  0.26656013  0.26480012  0.13387681     0.82200
N38         N  0.24278083  0.27703796  0.12932570    -0.78500
C39         C  0.22280588  0.26381091  0.11733948     0.82300
N40         N  0.22692003  0.23765570  0.10959757    -0.80200
C41         C  0.41928970  0.17584543  0.19620630     0.79700
N42         N  0.40650066  0.16223482  0.18318009    -0.78600
C43         C  0.41828351  0.14016135  0.17653666     0.82200
N44         N  0.44314206  0.13179283  0.18292659    -0.78500
C45         C  0.45678177  0.14564916  0.19584472     0.82300
N46         N  0.44466435  0.16766859  0.20247867    -0.80200
Fe47       Fe  0.37036305  0.05882238  0.07287638     1.65800
Fe48       Fe  0.30501355  0.96742652  0.08304918     1.73200
Fe49       Fe  0.28069042  0.01236194  0.05821109     1.54400
O50         O  0.28727337  0.06332812  0.06674219    -0.82200
O51         O  0.27629243  0.92958378  0.06716662    -0.80500
O52         O  0.34853225  0.09549196  0.07387890    -0.84700
O53         O  0.37879273  0.06408452  0.05183933    -0.79500
O54         O  0.23442445  0.98289800  0.07171521    -0.81300
O55         O  0.35413633  0.96615367  0.07684241    -0.84100
C56         C  0.35759231  0.05651698  0.04125798     0.96700
C57         C  0.31556239  0.09247870  0.07253769     1.04100
O58         O  0.31860875  0.01278475  0.07138014    -1.13000
O59         O  0.33140394  0.99862353  0.10082244    -0.75500
O60         O  0.36881808  0.05929487  0.09412814    -0.79000
O61         O  0.32098661  0.04053775  0.04222124    -0.79600
C62         C  0.35359758  0.03399096  0.10350013     0.95600
O63         O  0.39779791  0.02719597  0.07204830    -0.77600
O64         O  0.25397546  0.96341256  0.08997726    -0.82800
C65         C  0.26630465  0.93036619  0.05473657     0.98200
C66         C  0.22829897  0.96703380  0.08358161     1.04200
O67         O  0.26978329  0.96065581  0.04921588    -0.78400
C68         C  0.38764684  0.99184907  0.07277191     1.02500
Fe69       Fe  0.31299349  0.34242738  0.23923264     1.65800
Fe70       Fe  0.36725069  0.43511305  0.22810416     1.73200
Fe71       Fe  0.40477430  0.39944855  0.25146629     1.54400
O72         O  0.36918413  0.36833289  0.26792726    -0.82200
O73         O  0.41841885  0.44478338  0.21956692    -0.80500
O74         O  0.30825612  0.33997417  0.26060341    -0.84700
O75         O  0.34128937  0.31134884  0.23856347    -0.79500
O76         O  0.41002561  0.44792233  0.26063909    -0.81300
O77         O  0.34026708  0.40046460  0.21097566    -0.84100
C78         C  0.37628573  0.31936605  0.23920998     0.96700
C79         C  0.33297206  0.34959941  0.27021949     1.04100
O80         O  0.36165563  0.39234138  0.23961855    -1.13000
O81         O  0.31655878  0.42984101  0.23551088    -0.75500
O82         O  0.27856298  0.36729994  0.23989115    -0.79000
O83         O  0.40357162  0.35169495  0.24332451    -0.79600
C84         C  0.28445257  0.40137704  0.23928772     0.95600
O85         O  0.31287089  0.33952825  0.21778262    -0.77600
O86         O  0.39619871  0.47606090  0.24353167    -0.82800
C87         C  0.44779307  0.44572263  0.22481150     0.98200
C88         C  0.40929482  0.47656415  0.25561038     1.04200
O89         O  0.44721019  0.43232637  0.23682364    -0.78400
C90         C  0.32356762  0.36467486  0.20830168     1.02500
C91         C  0.18367940  0.25646461  0.36229003     0.79700
N92         N  0.19837850  0.27691050  0.35027989    -0.78600
C93         C  0.22557132  0.27373195  0.34282075     0.82200
N94         N  0.23795183  0.25025253  0.34742688    -0.78500
C95         C  0.22357468  0.22943520  0.35917203     0.82300
N96         N  0.19612713  0.23231473  0.36666144    -0.80200
C97         C  0.12131130  0.42518487  0.27810736     0.79700
N98         N  0.10819332  0.44570184  0.27112897    -0.78600
C99         C  0.08239697  0.45353141  0.27741217     0.82200
N100        N  0.07060807  0.44176292  0.29059546    -0.78500
C101        C  0.08416794  0.42233005  0.29774816     0.82300
N102        N  0.10936736  0.41384947  0.29143714    -0.80200
Fe103      Fe  0.02197161  0.38215159  0.40415669     1.65800
Fe104      Fe  0.92761645  0.33053428  0.39453364     1.73200
Fe105      Fe  0.96749881  0.28895706  0.41413375     1.54400
O106        O  0.01449312  0.29232770  0.40366395    -0.82200
O107        O  0.88890827  0.29772059  0.40994538    -0.80500
O108        O  0.05420969  0.35547992  0.40172543    -0.84700
O109        O  0.02521491  0.38299421  0.42539449    -0.79500
O110        O  0.93257002  0.25041353  0.39899454    -0.81300
O111        O  0.93383996  0.37865817  0.40469066    -0.84100
C112        C  0.01811218  0.35687010  0.43414708     0.96700
C113        C  0.04673064  0.32108455  0.40010465     1.04100
O114        O  0.97221584  0.33371660  0.40424525    -1.13000
O115        O  0.96039449  0.36255421  0.37758638    -0.75500
O116        O  0.02224073  0.38503048  0.38298332    -0.79000
O117        O  0.00135059  0.32138767  0.43087916    -0.79600
C118        C  0.99598276  0.37830108  0.37428079     0.95600
O119        O  0.99760413  0.41634166  0.40641920    -0.77600
O120        O  0.91625483  0.28132514  0.38379617    -0.82800
C121        C  0.88984760  0.28217302  0.42128786     0.98200
C122        C  0.91648041  0.25139921  0.38776631     1.04200
O123        O  0.91944799  0.28084550  0.42514431    -0.78400
C124        C  0.96354914  0.41041434  0.40794280     1.02500
C125        C  0.53642722  0.95302478  0.03004775     0.79700
N126        N  0.55192336  0.96850121  0.01740941    -0.78600
C127        C  0.57442816  0.95757268  0.01043240     0.82200
N128        N  0.58129561  0.93093370  0.01611848    -0.78500
C129        C  0.56571403  0.91479971  0.02861296     0.82300
N130        N  0.54327686  0.92600906  0.03556696    -0.80200
C131        C  0.49502845  0.14629010  0.94899532     0.79700
N132        N  0.47310385  0.12516501  0.96005856    -0.78600
C133        C  0.44571418  0.13209039  0.96559373     0.82200
N134        N  0.44047873  0.15998220  0.96002026    -0.78500
C135        C  0.46229772  0.18145390  0.94914278     0.82300
N136        N  0.48952237  0.17443164  0.94369974    -0.80200
Fe137      Fe  0.65596720  0.01624215  0.90646533     1.65800
Fe138      Fe  0.70416420  0.11026465  0.89603735     1.73200
Fe139      Fe  0.74867259  0.07673583  0.91734612     1.54400
O140        O  0.71704235  0.04677990  0.93470282    -0.82200
O141        O  0.75503409  0.12363419  0.88594432    -0.80500
O142        O  0.65616747  0.01049034  0.92764935    -0.84700
O143        O  0.68700751  0.98832032  0.90273843    -0.79500
O144        O  0.75532866  0.12555403  0.92670686    -0.81300
O145        O  0.67467775  0.07649965  0.87896233    -0.84100
C146        C  0.72226217  0.99739874  0.90395410     0.96700
C147        C  0.68142826  0.02383415  0.93713767     1.04100
O148        O  0.70304534  0.06770769  0.90657697    -1.13000
O149        O  0.65426866  0.10140479  0.90575074    -0.75500
O150        O  0.61988235  0.03866709  0.91046605    -0.79000
O151        O  0.74777941  0.02911414  0.90917108    -0.79600
C152        C  0.62455616  0.07240015  0.91086773     0.95600
O153        O  0.64998474  0.01550328  0.88521525    -0.77600
O154        O  0.73495008  0.15155562  0.91101484    -0.82800
C155        C  0.78541490  0.12445817  0.89019525     0.98200
C156        C  0.75206378  0.15331984  0.92229044     1.04200
O157        O  0.78655315  0.10900668  0.90156589    -0.78400
C158        C  0.65787878  0.04089772  0.87606243     1.02500
C159        C  0.86888749  0.60932608  0.69245215     0.79700
N160        N  0.88282485  0.62128864  0.67935969    -0.78600
C161        C  0.90594391  0.61013529  0.67308833     0.82200
N162        N  0.91490237  0.58650454  0.67994307    -0.78500
C163        C  0.90110368  0.57372405  0.69293891     0.82300
N164        N  0.87808979  0.58537409  0.69926067    -0.80200
C165        C  0.84244713  0.80580965  0.61284977     0.79700
N166        N  0.83181050  0.83002819  0.60732041    -0.78600
C167        C  0.80579783  0.83682989  0.61395627     0.82200
N168        N  0.79065447  0.81934232  0.62631156    -0.78500
C169        C  0.80118134  0.79537691  0.63211859     0.82300
N170        N  0.82709806  0.78847857  0.62530917    -0.80200
C171        C  0.61675853  0.91423532  0.77991994     0.79700
N172        N  0.62878578  0.92807817  0.79305064    -0.78600
C173        C  0.61482268  0.94831131  0.79981199     0.82200
N174        N  0.58850013  0.95448606  0.79339192    -0.78500
C175        C  0.57557310  0.94065876  0.78041727     0.82300
N176        N  0.58977052  0.92037110  0.77367703    -0.80200
C177        C  0.77800181  0.85931743  0.86256848     0.79700
N178        N  0.76298990  0.84117871  0.85026053    -0.78600
C179        C  0.77760795  0.82144488  0.84368044     0.82200
N180        N  0.80709770  0.81939531  0.84952847    -0.78500
C181        C  0.82212424  0.83657765  0.86193910     0.82300
N182        N  0.80753617  0.85673861  0.86845037    -0.80200
Fe183      Fe  0.72448987  0.74208139  0.73699423     1.65800
Fe184      Fe  0.66955945  0.65426341  0.75186249     1.73200
Fe185      Fe  0.63055114  0.68514900  0.72698071     1.54400
O186        O  0.63930830  0.73961020  0.73200720    -0.82200
O187        O  0.64529985  0.61123343  0.73720198    -0.80500
O188        O  0.69799738  0.77391361  0.74165840    -0.84700
O189        O  0.72154468  0.74821758  0.71582266    -0.79500
O190        O  0.59115026  0.66338763  0.74302267    -0.81300
O191        O  0.72307093  0.66106292  0.74633048    -0.84100
C192        C  0.69727146  0.73041634  0.70629257     0.96700
C193        C  0.66487336  0.76917074  0.73861487     1.04100
O194        O  0.67458449  0.69365705  0.73859597    -1.13000
O195        O  0.69228023  0.69264034  0.76813032    -0.75500
O196        O  0.73858307  0.74502972  0.75776505    -0.79000
O197        O  0.66269464  0.70463382  0.70885089    -0.79600
C198        C  0.72198526  0.72585722  0.76859239     0.95600
O199        O  0.75197404  0.71195669  0.73221169    -0.77600
O200        O  0.61528831  0.64121730  0.75883923    -0.82800
C201        C  0.62449693  0.60474621  0.72648774     0.98200
C202        C  0.58820875  0.64569015  0.75422550     1.04200
O203        O  0.61696565  0.62949067  0.72146049    -0.78400
C204        C  0.74859504  0.68130096  0.73725989     1.02500
C205        C  0.30405807  0.46210815  0.77724955     0.79700
N206        N  0.33718382  0.49068993  0.77129580    -0.78600
C207        C  0.37134202  0.50651671  0.77834186     0.82200
N208        N  0.37196452  0.49339691  0.79124892    -0.78500
C209        C  0.33930442  0.46531590  0.79727592     0.82300
N210        N  0.30546630  0.44989772  0.79027160    -0.80200
C211        C  0.06889849  0.29321576  0.86282902     0.79700
N212        N  0.03402181  0.26875077  0.86864387    -0.78600
C213        C  0.00060227  0.25979699  0.86213973     0.82200
N214        N  0.00223668  0.27553773  0.84952207    -0.78500
C215        C  0.03688592  0.29998971  0.84342107     0.82300
N216        N  0.07032093  0.30881535  0.85013859    -0.80200
Fe217      Fe  0.02279309  0.34576853  0.73674864     1.65800
Fe218      Fe  0.05911928  0.43652477  0.72377714     1.73200
Fe219      Fe  0.98207086  0.39928618  0.74634237     1.54400
O220        O  0.93811563  0.34984699  0.73730125    -0.82200
O221        O  0.07062400  0.47604030  0.73922976    -0.80500
O222        O  0.96343063  0.31217265  0.73386886    -0.84700
O223        O  0.01900565  0.34333189  0.75809727    -0.79500
O224        O  0.97321061  0.43033597  0.73134397    -0.81300
O225        O  0.10535845  0.43254059  0.73075161    -0.84100
C226        C  0.00149108  0.35237766  0.76697531     0.96700
C227        C  0.93555127  0.31868916  0.73300391     1.04100
O228        O  0.02147993  0.39399631  0.73564467    -1.13000
O229        O  0.05124546  0.40156088  0.70705732    -0.75500
O230        O  0.02702981  0.34240011  0.71557801    -0.79000
O231        O  0.98391323  0.36994106  0.76370782    -0.79600
C232        C  0.03783469  0.36580079  0.70551415     0.95600
O233        O  0.08218077  0.37381253  0.73944807    -0.77600
O234        O  0.01865297  0.44738333  0.71513498    -0.82800
C235        C  0.05561199  0.47762504  0.75071967     0.98200
C236        C  0.98870140  0.44656619  0.71993617     1.04200
O237        O  0.02380085  0.45008812  0.75543073    -0.78400
C238        C  0.11011120  0.40727339  0.73670242     1.02500
Fe239      Fe  0.36152589  0.41861591  0.90216493     1.65800
Fe240      Fe  0.39564814  0.36005171  0.89190181     1.73200
Fe241      Fe  0.31562072  0.32542514  0.91269987     1.54400
O242        O  0.31744825  0.35969965  0.92929022    -0.82200
O243        O  0.35347933  0.31251381  0.88166676    -0.80500
O244        O  0.35842528  0.42047717  0.92343324    -0.84700
O245        O  0.30248522  0.39562894  0.89956270    -0.79500
O246        O  0.35339053  0.31442061  0.92343357    -0.81300
O247        O  0.39775528  0.39259332  0.87486560    -0.84100
C248        C  0.27358805  0.36175399  0.89842379     0.96700
C249        C  0.33793842  0.39517719  0.93235118     1.04100
O250        O  0.35774484  0.36807298  0.90229549    -1.13000
O251        O  0.44145716  0.40660384  0.90115158    -0.75500
O252        O  0.42099272  0.44824776  0.90448499    -0.79000
O253        O  0.27447078  0.33222131  0.90242807    -0.79600
C254        C  0.44724129  0.43939258  0.90478882     0.95600
O255        O  0.36492689  0.42150038  0.88097450    -0.77600
O256        O  0.39844212  0.32569950  0.90738408    -0.82800
C257        C  0.32303773  0.28370309  0.88638224     0.98200
C258        C  0.38208946  0.31192596  0.91905335     1.04200
O259        O  0.30789619  0.28453036  0.89795360    -0.78400
C260        C  0.38140625  0.41164970  0.87193928     1.02500
C261        C  0.40074671  0.53092249  0.02716493     0.79700
N262        N  0.36535724  0.51898344  0.03290485    -0.78600
C263        C  0.33254744  0.49314385  0.02623661     0.82200
N264        N  0.33537822  0.47948296  0.01362434    -0.78500
C265        C  0.37041212  0.49133656  0.00760902     0.82300
N266        N  0.40321727  0.51706254  0.01445200    -0.80200
C267        C  0.63441861  0.59317708  0.94543882     0.79700
N268        N  0.66823519  0.59907971  0.93977499    -0.78600
C269        C  0.70201105  0.61974430  0.94679508     0.82200
N270        N  0.70158981  0.63414204  0.95951170    -0.78500
C271        C  0.66810865  0.62808728  0.96532008     0.82300
N272        N  0.63446676  0.60749583  0.95828581    -0.80200
Fe273      Fe  0.68964729  0.69032230  0.07123350     1.65800
Fe274      Fe  0.64410630  0.73956711  0.08100431     1.73200
Fe275      Fe  0.72621500  0.78331643  0.06067190     1.54400
O276        O  0.77160016  0.77911607  0.06864209    -0.82200
O277        O  0.63444271  0.76770632  0.06525586    -0.80500
O278        O  0.74796400  0.71917169  0.07617128    -0.84700
O279        O  0.70043856  0.69221829  0.05029357    -0.79500
O280        O  0.73357455  0.81971127  0.07673939    -0.81300
O281        O  0.60249299  0.68867681  0.07192563    -0.84100
C282        C  0.71231141  0.71763815  0.04091314     0.96700
C283        C  0.77589637  0.75332776  0.07445192     1.04100
O284        O  0.68674328  0.73786214  0.07101644    -1.13000
O285        O  0.64752588  0.71215574  0.09859221    -0.75500
O286        O  0.67889427  0.68208244  0.09223451    -0.79000
O287        O  0.72341447  0.75257609  0.04328547    -0.79600
C288        C  0.66263960  0.69195740  0.10138494     0.95600
O289        O  0.63202337  0.65635785  0.06592903    -0.77600
O290        O  0.68120574  0.79172626  0.09048619    -0.82800
C291        C  0.65272436  0.78764990  0.05476016     0.98200
C292        C  0.71423692  0.81993689  0.08719269     1.04200
O293        O  0.68619123  0.79413259  0.05138349    -0.78400
C294        C  0.60244550  0.66019984  0.06612771     1.02500
C295        C  0.73490201  0.19425483  0.69294116     0.79700
N296        N  0.73617076  0.17566449  0.68120329    -0.78600
C297        C  0.70267284  0.14996798  0.67470238     0.82200
N298        N  0.66831626  0.14294210  0.68007600    -0.78500
C299        C  0.66672207  0.16129709  0.69169322     0.82300
N300        N  0.70012516  0.18699614  0.69804787    -0.80200
C301        C  0.95360290  0.22184483  0.61374182     0.79700
N302        N  0.95430536  0.23457897  0.62692840    -0.78600
C303        C  0.98811551  0.25411710  0.63384775     0.82200
N304        N  0.02125868  0.26083278  0.62764638    -0.78500
C305        C  0.02132197  0.24798576  0.61461489     0.82300
N306        N  0.98725603  0.22840353  0.60758278    -0.80200
C307        C  0.40212746  0.96903981  0.53178107     0.79700
N308        N  0.36676442  0.94398154  0.53745156    -0.78600
C309        C  0.33392198  0.93629413  0.53061090     0.82200
N310        N  0.33669144  0.95299862  0.51818650    -0.78500
C311        C  0.37134292  0.97699512  0.51229527     0.82300
N312        N  0.40414666  0.98503089  0.51909726    -0.80200
C313        C  0.60832363  0.11592516  0.45111521     0.79700
N314        N  0.60970792  0.10152555  0.46373912    -0.78600
C315        C  0.64398835  0.11372461  0.47021320     0.82200
N316        N  0.67709665  0.14070156  0.46402786    -0.78500
C317        C  0.67646095  0.15585838  0.45153272     0.82300
N318        N  0.64190993  0.14328179  0.44505806    -0.80200
Fe319      Fe  0.67398918  0.05443436  0.57322625     1.65800
Fe320      Fe  0.63566387  0.96196699  0.58432736     1.73200
Fe321      Fe  0.71047662  0.99989779  0.56094637     1.54400
O322        O  0.70724520  0.03120850  0.54447759    -0.82200
O323        O  0.67803408  0.95453712  0.59320738    -0.80500
O324        O  0.67286311  0.05715731  0.55200060    -0.84700
O325        O  0.73414791  0.08715156  0.57400506    -0.79500
O326        O  0.66774299  0.95155439  0.55161086    -0.81300
O327        O  0.63986858  0.99603798  0.60143408    -0.84100
C328        C  0.76160123  0.07995776  0.57311490     0.96700
C329        C  0.68914891  0.04897937  0.54234627     1.04100
O330        O  0.67340387  0.00546644  0.57285992    -1.13000
O331        O  0.58980173  0.96505118  0.57632368    -0.75500
O332        O  0.61396970  0.02764818  0.57241779    -0.79000
O333        O  0.75660704  0.04772519  0.56916746    -0.79600
C334        C  0.58586225  0.99306791  0.57263549     0.95600
O335        O  0.67518663  0.05684780  0.59446580    -0.77600
O336        O  0.62639946  0.92141526  0.56900949    -0.82800
C337        C  0.70653673  0.95385037  0.58765165     0.98200
C338        C  0.63930463  0.92181483  0.55681273     1.04200
O339        O  0.71916282  0.96730339  0.57556487    -0.78400
C340        C  0.65875761  0.03198131  0.60392538     1.02500
Fe341      Fe  0.33198317  0.99806653  0.40693607     1.65800
Fe342      Fe  0.36723978  0.08601362  0.39149681     1.73200
Fe343      Fe  0.29382434  0.05426383  0.41567855     1.54400
O344        O  0.24809327  0.99915985  0.41159716    -0.82200
O345        O  0.38322100  0.12958895  0.40557465    -0.80500
O346        O  0.27298547  0.96437709  0.40338002    -0.84700
O347        O  0.32591196  0.99676585  0.42825232    -0.79500
O348        O  0.27615025  0.07180879  0.39882642    -0.81300
O349        O  0.41437684  0.08227656  0.39837537    -0.84100
C350        C  0.31864501  0.01536120  0.43724367     0.96700
C351        C  0.24427277  0.96885963  0.40586468     1.04100
O352        O  0.33097378  0.04619216  0.40465448    -1.13000
O353        O  0.35625605  0.04757475  0.37555434    -0.75500
O354        O  0.33916689  0.99217851  0.38609525    -0.79000
O355        O  0.30712126  0.03829671  0.43408231    -0.79600
C356        C  0.34702135  0.01253204  0.37525842     0.95600
O357        O  0.39073862  0.02797132  0.41057520    -0.77600
O358        O  0.32493804  0.09613048  0.38350970    -0.82800
C359        C  0.36759952  0.13595873  0.41594701     0.98200
C360        C  0.29172423  0.08930048  0.38761873     1.04200
O361        O  0.33466644  0.11084834  0.42073064    -0.78400
C362        C  0.41882621  0.06000142  0.40650671     1.02500
C363        C  0.05312930  0.81689537  0.36489893     0.79700
N364        N  0.05160097  0.79872060  0.35271164    -0.78600
C365        C  0.01748517  0.77697982  0.34596400     0.82200
N366        N  0.98462759  0.77362406  0.35148542    -0.78500
C367        C  0.98544449  0.79177117  0.36357259     0.82300
N368        N  0.01986532  0.81339574  0.37024196    -0.80200
C369        C  0.27261632  0.84739252  0.28876265     0.79700
N370        N  0.27492553  0.86125855  0.30186851    -0.78600
C371        C  0.30966366  0.88356718  0.30797712     0.82200
N372        N  0.34238416  0.89207950  0.30095164    -0.78500
C373        C  0.34088247  0.87810246  0.28794465     0.82300
N374        N  0.30579934  0.85587288  0.28179490    -0.80200
C375        C  0.96168217  0.78820847  0.11649895     0.79700
N376        N  0.99623693  0.81964075  0.11285562    -0.78600
C377        C  0.02739539  0.83263358  0.12143377     0.82200
N378        N  0.02336227  0.81422197  0.13362199    -0.78500
C379        C  0.98936195  0.78307635  0.13738236     0.82300
N380        N  0.95861328  0.76991102  0.12872476    -0.80200
C381        C  0.72802112  0.62083651  0.19457961     0.79700
N382        N  0.72687755  0.63416516  0.18175892    -0.78600
C383        C  0.69250112  0.62254114  0.17538161     0.82200
N384        N  0.65892776  0.59707504  0.18189593    -0.78500
C385        C  0.65974266  0.58323077  0.19470643     0.82300
N386        N  0.69435399  0.59535146  0.20093550    -0.80200
Fe387      Fe  0.99722738  0.70841964  0.24241511     1.65800
Fe388      Fe  0.02977924  0.65525775  0.22689738     1.73200
Fe389      Fe  0.95323700  0.61269959  0.24933707     1.54400
O390        O  0.96587395  0.63999580  0.26853122    -0.82200
O391        O  0.99009988  0.60184441  0.21923746    -0.80500
O392        O  0.98097308  0.69951882  0.26309031    -0.84700
O393        O  0.94100080  0.68608332  0.23582598    -0.79500
O394        O  0.99141095  0.59366939  0.25381399    -0.81300
O395        O  0.01474913  0.67873649  0.21089573    -0.84100
C396        C  0.91063852  0.65400082  0.23843132     0.96700
C397        C  0.97382300  0.67362427  0.27195536     1.04100
O398        O  0.99319985  0.65839810  0.23960970    -1.13000
O399        O  0.07604588  0.70824934  0.23300046    -0.75500
O400        O  0.05316236  0.73149433  0.24913898    -0.79000
O401        O  0.91119160  0.62706002  0.24516195    -0.79600
C402        C  0.08099196  0.72988330  0.24342685     0.95600
O403        O  0.01537776  0.72720587  0.22226104    -0.77600
O404        O  0.04617071  0.63037970  0.24185945    -0.82800
C405        C  0.95529556  0.57619579  0.22166201     0.98200
C406        C  0.02620169  0.60381994  0.25052535     1.04200
O407        O  0.93576417  0.57877863  0.23163239    -0.78400
C408        C  0.01501559  0.71025857  0.21105211     1.02500
C409        C  0.15929385  0.74850178  0.78110885     0.79700
N410        N  0.14476303  0.75377523  0.79326550    -0.78600
C411        C  0.11721165  0.72297136  0.80040114     0.82200
N412        N  0.10417851  0.68727147  0.79526508    -0.78500
C413        C  0.11832395  0.68149226  0.78329546     0.82300
N414        N  0.14634054  0.71218499  0.77619951    -0.80200
C415        C  0.21025365  0.00017803  0.86385712     0.79700
N416        N  0.22785210  0.99854557  0.85189582    -0.78600
C417        C  0.25234054  0.03148140  0.84488069     0.82200
N418        N  0.25912491  0.06585954  0.84999757    -0.78500
C419        C  0.24179512  0.06779560  0.86191264     0.82300
N420        N  0.21732848  0.03483316  0.86872659    -0.80200
Fe421      Fe  0.32402172  0.03695718  0.74016480     1.65800
Fe422      Fe  0.37607959  0.99518552  0.73004651     1.73200
Fe423      Fe  0.41838428  0.07749792  0.74986206     1.54400
O424        O  0.41366754  0.12087612  0.74029864    -0.82200
O425        O  0.41165721  0.99132630  0.74470914    -0.80500
O426        O  0.35075972  0.09540428  0.73621099    -0.84700
O427        O  0.32487333  0.04402882  0.76135106    -0.79500
O428        O  0.45547221  0.08247926  0.73397178    -0.81300
O429        O  0.32854469  0.95273574  0.74056920    -0.84100
C430        C  0.35137969  0.06159320  0.77023458     0.96700
C431        C  0.38539969  0.12335484  0.73568064     1.04100
O432        O  0.37286415  0.03649492  0.74007869    -1.13000
O433        O  0.34220428  0.99297688  0.71336768    -0.75500
O434        O  0.31788699  0.03006425  0.71907045    -0.79000
O435        O  0.38713735  0.07768665  0.76721245    -0.79600
C436        C  0.32457989  0.01066201  0.71027063     0.95600
O437        O  0.29117110  0.97847142  0.74385725    -0.77600
O438        O  0.42408921  0.03416061  0.71889470    -0.82800
C439        C  0.42938457  0.00902528  0.75568750     0.98200
C440        C  0.45385396  0.06541602  0.72260403     1.04200
O441        O  0.42937864  0.03888698  0.76007857    -0.78400
C442        C  0.29716161  0.95041177  0.74464919     1.02500
C443        C  0.77109952  0.97090888  0.35708810     0.79700
N444        N  0.79656590  0.00584755  0.36258578    -0.78600
C445        C  0.80302149  0.03872481  0.35634736     0.82200
N446        N  0.78413375  0.03638718  0.34440484    -0.78500
C447        C  0.75916513  0.00179142  0.33858782     0.82300
N448        N  0.75238512  0.96884039  0.34502299    -0.80200
C449        C  0.58881813  0.75596899  0.28189833     0.79700
N450        N  0.56004253  0.72274848  0.27628868    -0.78600
C451        C  0.54580843  0.68883287  0.28314888     0.82200
N452        N  0.56083000  0.68831511  0.29570530    -0.78500
C453        C  0.58941521  0.72114618  0.30151611     0.82300
N454        N  0.60323223  0.75500817  0.29459645    -0.80200
C455        C  0.10501807  0.64758608  0.02719568     0.79700
N456        N  0.13223254  0.68094644  0.03333779    -0.78600
C457        C  0.14557334  0.71526539  0.02674659     0.82200
N458        N  0.13127989  0.71587882  0.01407658    -0.78500
C459        C  0.10426650  0.68308762  0.00783039     0.82300
N460        N  0.09124482  0.64896056  0.01441795    -0.80200
C461        C  0.92620251  0.43525731  0.94877760     0.79700
N462        N  0.94063527  0.43375068  0.96138698    -0.78600
C463        C  0.92764608  0.39962642  0.96793864     0.82200
N464        N  0.90002887  0.36695030  0.96181790    -0.78500
C465        C  0.88494875  0.36773815  0.94931834     0.82300
N466        N  0.89815796  0.40209170  0.94278361    -0.80200
C467        C  0.81118593  0.09087278  0.11469282     0.79700
N468        N  0.79676619  0.05460548  0.10955454    -0.78600
C469        C  0.76661751  0.02433298  0.11600079     0.82200
N470        N  0.75134018  0.03021689  0.12764613    -0.78500
C471        C  0.76588460  0.06582620  0.13314355     0.82300
N472        N  0.79598505  0.09640367  0.12667266    -0.80200
C473        C  0.85219434  0.29856121  0.19157034     0.79700
N474        N  0.85733808  0.33135139  0.19770639    -0.78600
C475        C  0.88015247  0.36616579  0.19165426     0.82200
N476        N  0.89796493  0.36793466  0.17937502    -0.78500
C477        C  0.89307574  0.33554957  0.17306758     0.82300
N478        N  0.87010208  0.30087354  0.17921376    -0.80200
Fe479      Fe  0.98729103  0.37338358  0.07100662     1.65800
Fe480      Fe  0.07878840  0.40201544  0.08220133     1.73200
Fe481      Fe  0.03247238  0.32543773  0.05962347     1.54400
O482        O  0.98098171  0.28436804  0.06880668    -0.82200
O483        O  0.11600312  0.40954527  0.06603819    -0.80500
O484        O  0.95005669  0.31572171  0.07433192    -0.84700
O485        O  0.98113484  0.36891560  0.04987483    -0.79500
O486        O  0.06062348  0.31175485  0.07422060    -0.81300
O487        O  0.07898198  0.45101707  0.07539289    -0.84100
C488        C  0.98825906  0.35152671  0.04038484     0.96700
C489        C  0.95259303  0.28557477  0.07429211     1.04100
O490        O  0.03304210  0.36704290  0.07092178    -1.13000
O491        O  0.04661844  0.39759537  0.09985476    -0.75500
O492        O  0.98724246  0.37863820  0.09219179    -0.79000
O493        O  0.00474937  0.33235281  0.04271939    -0.79600
C494        C  0.01135883  0.38728492  0.10192056     0.95600
O495        O  0.01951676  0.43172643  0.06781732    -0.77600
O496        O  0.08598450  0.35825170  0.09013791    -0.82800
C497        C  0.11523288  0.39320510  0.05456814     0.98200
C498        C  0.07984893  0.32628366  0.08522288     1.04200
O499        O  0.08512606  0.36302711  0.05018689    -0.78400
C500        C  0.05442242  0.45772257  0.06972786     1.02500
Fe501      Fe  0.68593570  0.02621876  0.23662799     1.65800
Fe502      Fe  0.62945674  0.06040373  0.24988145     1.73200
Fe503      Fe  0.59136898  0.98524442  0.22657441     1.54400
O504        O  0.62398028  0.99606347  0.20865979    -0.82200
O505        O  0.57935242  0.01731172  0.25879873    -0.80500
O506        O  0.68534421  0.02364486  0.21532441    -0.84700
O507        O  0.66121648  0.96755278  0.23911094    -0.79500
O508        O  0.57734826  0.02454479  0.21942528    -0.81300
O509        O  0.65953017  0.05484960  0.26639120    -0.84100
C510        C  0.62760189  0.93851907  0.23758484     0.96700
C511        C  0.65987071  0.01253196  0.20594889     1.04100
O512        O  0.63547946  0.02389581  0.23772879    -1.13000
O513        O  0.67841570  0.10723959  0.24183416    -0.75500
O514        O  0.71612807  0.08518655  0.23399500    -0.79000
O515        O  0.59964894  0.94085602  0.23257481    -0.79600
C516        C  0.70888300  0.11218431  0.23577549     0.95600
O517        O  0.69328766  0.02937837  0.25779313    -0.77600
O518        O  0.59795518  0.07104663  0.23535400    -0.82800
C519        C  0.55187196  0.98509855  0.25457497     0.98200
C520        C  0.58019177  0.05531705  0.22414515     1.04200
O521        O  0.55268724  0.97045045  0.24291581    -0.78400
C522        C  0.68164350  0.04110113  0.26792904     1.02500
Fe523      Fe  0.04488765  0.71071053  0.90495575     1.65800
Fe524      Fe  0.95311430  0.68021438  0.89444101     1.73200
Fe525      Fe  0.99828615  0.75680668  0.91637022     1.54400
O526        O  0.03020132  0.75333426  0.93276240    -0.82200
O527        O  0.95119193  0.72440720  0.88473452    -0.80500
O528        O  0.04838811  0.71186835  0.92611874    -0.84700
O529        O  0.08236556  0.76977578  0.90284790    -0.79500
O530        O  0.94856627  0.71839617  0.92684482    -0.81300
O531        O  0.98415837  0.67807888  0.87755510    -0.84100
C532        C  0.07768676  0.79871032  0.90197195     0.96700
C533        C  0.04392305  0.73170714  0.93537547     1.04100
O534        O  0.99872056  0.71575869  0.90530978    -1.13000
O535        O  0.95085319  0.63292333  0.90325892    -0.75500
O536        O  0.01273619  0.65100746  0.90689593    -0.79000
O537        O  0.04714530  0.79784135  0.90623566    -0.79600
C538        C  0.97682904  0.62573595  0.90700135     0.95600
O539        O  0.04607114  0.70908407  0.88374360    -0.77600
O540        O  0.91537747  0.67769988  0.90967088    -0.82800
C541        C  0.95156452  0.75352070  0.89001583     0.98200
C542        C  0.91715365  0.69171680  0.92171814     1.04200
O543        O  0.96547851  0.76644450  0.90200770    -0.78400
C544        C  0.01986761  0.69361909  0.87467374     1.02500
C545        C  0.48420614  0.40844967  0.44925262     0.79700
N546        N  0.46987742  0.37214045  0.44403373    -0.78600
C547        C  0.44275100  0.34128675  0.45134801     0.82200
N548        N  0.43076063  0.34703444  0.46381769    -0.78500
C549        C  0.44499996  0.38263853  0.46924043     0.82300
N550        N  0.47176872  0.41359601  0.46192617    -0.80200
C551        C  0.52715786  0.64088746  0.53185847     0.79700
N552        N  0.53446029  0.67552706  0.53674082    -0.78600
C553        C  0.55739010  0.70832317  0.52966536     0.82200
N554        N  0.57348295  0.70642367  0.51743499    -0.78500
C555        C  0.56641001  0.67201353  0.51221729     0.82300
N556        N  0.54301911  0.63901726  0.51945467    -0.80200
Fe557      Fe  0.63804209  0.69449067  0.40646445     1.65800
Fe558      Fe  0.69153094  0.65542460  0.39563305     1.73200
Fe559      Fe  0.73162133  0.73496569  0.41631947     1.54400
O560        O  0.72800512  0.77707635  0.40555280    -0.82200
O561        O  0.72597525  0.65114461  0.41073547    -0.80500
O562        O  0.66452729  0.75404478  0.40472426    -0.84700
O563        O  0.63708704  0.69507160  0.42781141    -0.79500
O564        O  0.77171268  0.73918821  0.40150977    -0.81300
O565        O  0.64417122  0.61165500  0.40575368    -0.84100
C566        C  0.66320764  0.71454185  0.43663073     0.96700
C567        C  0.69921201  0.78038863  0.40223180     1.04100
O568        O  0.68709144  0.69483685  0.40613721    -1.13000
O569        O  0.65833453  0.65540910  0.37894064    -0.75500
O570        O  0.63541801  0.69353394  0.38516969    -0.79000
O571        O  0.69853572  0.73589340  0.43311786    -0.79600
C572        C  0.64257159  0.67513839  0.37603633     0.95600
O573        O  0.60466183  0.63505197  0.40819330    -0.77600
O574        O  0.74012881  0.69566837  0.38495916    -0.82800
C575        C  0.74011875  0.66638862  0.42250629     0.98200
C576        C  0.77089760  0.72405932  0.38975587     1.04200
O577        O  0.73894537  0.69532997  0.42719905    -0.78400
C578        C  0.61201907  0.60799841  0.40948756     1.02500
C579        C  0.46046818  0.32658606  0.69839433     0.79700
N580        N  0.44273700  0.32103051  0.68582408    -0.78600
C581        C  0.44703812  0.35145624  0.67837022     0.82200
N582        N  0.46893609  0.38738355  0.68354965    -0.78500
C583        C  0.48725736  0.39373569  0.69589955     0.82300
N584        N  0.48318769  0.36320932  0.70337189    -0.80200
C585        C  0.26149312  0.07821697  0.61569986     0.79700
N586        N  0.27477591  0.07735671  0.62858946    -0.78600
C587        C  0.26360320  0.04354895  0.63510644     0.82200
N588        N  0.23876142  0.01012387  0.62862042    -0.78500
C589        C  0.22473323  0.01014245  0.61578676     0.82300
N590        N  0.23612736  0.04439387  0.60934024    -0.80200
Fe591      Fe  0.37040502  0.35444522  0.57468555     1.65800
Fe592      Fe  0.32195696  0.39875085  0.58636328     1.73200
Fe593      Fe  0.27858615  0.32396817  0.56326755     1.54400
O594        O  0.31129595  0.32752930  0.54620126    -0.82200
O595        O  0.26972125  0.35957118  0.59558792    -0.80500
O596        O  0.37203570  0.35233349  0.55331244    -0.84700
O597        O  0.33890547  0.29535842  0.57683844    -0.79500
O598        O  0.27337512  0.36827821  0.55478528    -0.81300
O599        O  0.35005901  0.39203207  0.60304340    -0.84100
C600        C  0.30372159  0.26909471  0.57551680     0.96700
C601        C  0.34696510  0.34113124  0.54377746     1.04100
O602        O  0.32351039  0.35887533  0.57482735    -1.13000
O603        O  0.37289397  0.44125091  0.57748396    -0.75500
O604        O  0.40702074  0.41295458  0.57232852    -0.79000
O605        O  0.27804827  0.27541417  0.57063597    -0.79600
C606        C  0.40272320  0.44209832  0.57239127     0.95600
O607        O  0.37513092  0.35661251  0.59605007    -0.77600
O608        O  0.29318310  0.41169541  0.57180347    -0.82800
C609        C  0.23960043  0.33115851  0.59035544     0.98200
C610        C  0.27714461  0.39890777  0.56014306     1.04200
O611        O  0.23971246  0.31674398  0.57859351    -0.78400
C612        C  0.36726676  0.37361952  0.60552262     1.02500
C613        C  0.27480467  0.11605096  0.60893783    -0.05700
C614        C  0.30603633  0.14948268  0.61473251    -0.05700
C615        C  0.31855505  0.18558501  0.60895699    -0.23800
C616        C  0.29993315  0.18926454  0.59730769     0.18400
C617        C  0.26853304  0.15612224  0.59129341     0.15600
C618        C  0.25639734  0.11959375  0.59705022    -0.18900
C619        C  0.24942116  0.16033192  0.57982208    -0.20700
C620        C  0.26087116  0.19700676  0.57457159    -0.13300
C621        C  0.29221277  0.22998091  0.58047905     0.03400
C622        C  0.31184309  0.22573639  0.59176808    -0.25400
H623        H  0.32098842  0.14786574  0.62382087     0.08500
H624        H  0.34257844  0.21072259  0.61371922     0.12100
H625        H  0.23218208  0.09421018  0.59249476     0.12000
H626        H  0.22523760  0.13535443  0.57506439     0.11800
H627        H  0.24530765  0.19961894  0.56587159     0.12300
H628        H  0.33567699  0.25102360  0.59655590     0.14300
C629        C  0.37869109  0.37220259  0.62002082    -0.05700
C630        C  0.38055288  0.39902090  0.62988657    -0.05700
C631        C  0.39270519  0.39898736  0.64344945    -0.23800
C632        C  0.40289273  0.37191143  0.64743676     0.18400
C633        C  0.39984158  0.34386138  0.63780002     0.15600
C634        C  0.38795225  0.34430751  0.62411162    -0.18900
C635        C  0.40937299  0.31632919  0.64199011    -0.20700
C636        C  0.42313625  0.31750230  0.65545873    -0.13300
C637        C  0.42791567  0.34645925  0.66482858     0.03400
C638        C  0.41696407  0.37306768  0.66082309    -0.25400
H639        H  0.37338476  0.42064294  0.62703994     0.08500
H640        H  0.39463561  0.42048210  0.65076818     0.12100
H641        H  0.38604406  0.32308533  0.61665807     0.12000
H642        H  0.40691302  0.29440754  0.63477730     0.11800
H643        H  0.43148668  0.29678397  0.65836200     0.12300
H644        H  0.42009201  0.39521831  0.66807447     0.14300
C645        C  0.58216275  0.67114622  0.49829671    -0.05700
C646        C  0.56062587  0.64066063  0.48902201    -0.05700
C647        C  0.57259694  0.64286626  0.47514818    -0.23800
C648        C  0.60657853  0.67540233  0.47037579     0.18400
C649        C  0.62955207  0.70527783  0.47981377     0.15600
C650        C  0.61710986  0.70304443  0.49367563    -0.18900
C651        C  0.66407615  0.73731610  0.47513556    -0.20700
C652        C  0.67527155  0.74023460  0.46114198    -0.13300
C653        C  0.65185868  0.71147335  0.45152846     0.03400
C654        C  0.61767440  0.67883960  0.45629732    -0.25400
H655        H  0.53356768  0.61594518  0.49232070     0.08500
H656        H  0.55481810  0.61951771  0.46807449     0.12100
H657        H  0.63413642  0.72659048  0.50079372     0.12000
H658        H  0.68223732  0.76030822  0.48227246     0.11800
H659        H  0.70190962  0.76535979  0.45778440     0.12300
H660        H  0.59975693  0.65597933  0.44906293     0.14300
C661        C  0.43234217  0.47751893  0.56523876    -0.05700
C662        C  0.45887255  0.47597419  0.55591254    -0.05700
C663        C  0.48272711  0.50738255  0.54741265    -0.23800
C664        C  0.48067144  0.54106640  0.54809219     0.18400
C665        C  0.45499217  0.54330198  0.55774836     0.15600
C666        C  0.43111168  0.51168005  0.56622768    -0.18900
C667        C  0.45298705  0.57689532  0.55860017    -0.20700
C668        C  0.47611719  0.60801000  0.54999315    -0.13300
C669        C  0.50165147  0.60626242  0.54024169     0.03400
C670        C  0.50366184  0.57247489  0.53928685    -0.25400
H671        H  0.46016033  0.44988096  0.55476441     0.08500
H672        H  0.50223539  0.50503534  0.54012776     0.12100
H673        H  0.41077668  0.51332975  0.57330915     0.12000
H674        H  0.43349415  0.57913816  0.56592669     0.11800
H675        H  0.47384946  0.63360143  0.55097312     0.12300
H676        H  0.52350617  0.57090574  0.53193967     0.14300
C677        C  0.58270352  0.57175850  0.41634696    -0.05700
C678        C  0.55214735  0.57097963  0.42396315    -0.05700
C679        C  0.52711406  0.53896501  0.43194967    -0.23800
C680        C  0.53177681  0.50679934  0.43238747     0.18400
C681        C  0.56141073  0.50646959  0.42440222     0.15600
C682        C  0.58686212  0.53903719  0.41650870    -0.18900
C683        C  0.56523603  0.47368819  0.42458374    -0.20700
C684        C  0.53997753  0.44164054  0.43260232    -0.13300
C685        C  0.51114621  0.44222329  0.44083547     0.03400
C686        C  0.50729366  0.47499300  0.44070268    -0.25400
H687        H  0.54832759  0.59574267  0.42415703     0.08500
H688        H  0.50438058  0.53958407  0.43793278     0.12100
H689        H  0.61020172  0.53911425  0.41069064     0.12000
H690        H  0.58765217  0.47278385  0.41849486     0.11800
H691        H  0.54329840  0.41657171  0.43253655     0.12300
H692        H  0.48468889  0.47540057  0.44685970     0.14300
C693        C  0.43093390  0.38596629  0.48309173    -0.05700
C694        C  0.45536479  0.41363066  0.49281889    -0.05700
C695        C  0.44358849  0.41093651  0.50675535    -0.23800
C696        C  0.40731944  0.38053376  0.51104880     0.18400
C697        C  0.38190731  0.35400192  0.50107841     0.15600
C698        C  0.39371784  0.35716806  0.48721793    -0.18900
C699        C  0.34550467  0.32384053  0.50516371    -0.20700
C700        C  0.33441294  0.31954843  0.51910788    -0.13300
C701        C  0.35969362  0.34507409  0.52918765     0.03400
C702        C  0.39612799  0.37572208  0.52511351    -0.25400
H703        H  0.48419971  0.43596391  0.48982281     0.08500
H704        H  0.46327251  0.43179155  0.51423936     0.12100
H705        H  0.37443928  0.33601085  0.47970733     0.12000
H706        H  0.32574527  0.30339303  0.49759165     0.11800
H707        H  0.30612867  0.29601220  0.52204884     0.12300
H708        H  0.41542467  0.39600630  0.53283320     0.14300
C709        C  0.99661243  0.38360198  0.11617786    -0.05700
C710        C  0.01123449  0.41551123  0.12510085    -0.05700
C711        C  0.99393408  0.41236620  0.13811214    -0.23800
C712        C  0.96227403  0.37707265  0.14240361     0.18400
C713        C  0.94832072  0.34451956  0.13360342     0.15600
C714        C  0.96533280  0.34813400  0.12048267    -0.18900
C715        C  0.91728933  0.30906117  0.13799739    -0.20700
C716        C  0.89978487  0.30595190  0.15094475    -0.13300
C717        C  0.91266789  0.33835694  0.15962492     0.03400
C718        C  0.94414658  0.37385102  0.15528220    -0.25400
H719        H  0.03511911  0.44307677  0.12180413     0.08500
H720        H  0.00504314  0.43756695  0.14475431     0.12100
H721        H  0.95412585  0.32347535  0.11354011     0.12000
H722        H  0.90640943  0.28380669  0.13138603     0.11800
H723        H  0.87563971  0.27832376  0.15403848     0.12300
H724        H  0.95467053  0.39900191  0.16193202     0.14300
C725        C  0.73599224  0.15050090  0.22985697    -0.05700
C726        C  0.73503371  0.18323696  0.23441335    -0.05700
C727        C  0.75800286  0.21877965  0.22794896    -0.23800
C728        C  0.78192227  0.22211851  0.21666326     0.18400
C729        C  0.78307890  0.18940554  0.21195440     0.15600
C730        C  0.76047251  0.15394112  0.21866909    -0.18900
C731        C  0.80633772  0.19259348  0.20046465    -0.20700
C732        C  0.82843591  0.22793697  0.19374823    -0.13300
C733        C  0.82792771  0.26083302  0.19845515     0.03400
C734        C  0.80443639  0.25756872  0.20994777    -0.25400
H735        H  0.71621438  0.18128145  0.24292144     0.08500
H736        H  0.75664944  0.24354094  0.23165601     0.12100
H737        H  0.76092890  0.12877072  0.21486145     0.12000
H738        H  0.80739223  0.16775296  0.19665675     0.11800
H739        H  0.84625260  0.22955085  0.18494373     0.12300
H740        H  0.80343270  0.28253431  0.21364659     0.14300
C741        C  0.84144482  0.12391421  0.10674473    -0.05700
C742        C  0.86460187  0.11849183  0.09695432    -0.05700
C743        C  0.89089643  0.14884951  0.08853709    -0.23800
C744        C  0.89405286  0.18504717  0.08958545     0.18400
C745        C  0.87096525  0.19077155  0.09943404     0.15600
C746        C  0.84530305  0.16041925  0.10807423    -0.18900
C747        C  0.87346836  0.22662707  0.10035425    -0.20700
C748        C  0.89873084  0.25664393  0.09167410    -0.13300
C749        C  0.92247375  0.25168805  0.08198578     0.03400
C750        C  0.91987977  0.21560464  0.08098789    -0.25400
H751        H  0.86218545  0.09061111  0.09572795     0.08500
H752        H  0.90832933  0.14385285  0.08107373     0.12100
H753        H  0.82731205  0.16487610  0.11545891     0.12000
H754        H  0.85602024  0.23155071  0.10783819     0.11800
H755        H  0.90051146  0.28424394  0.09289357     0.12300
H756        H  0.93816175  0.21141740  0.07365984     0.14300
C757        C  0.67289223  0.02054245  0.19131828    -0.05700
C758        C  0.64749043  0.99964592  0.18045536    -0.05700
C759        C  0.65990161  0.00745409  0.16663153    -0.23800
C760        C  0.69781892  0.03645408  0.16347384     0.18400
C761        C  0.72323483  0.05866659  0.17426706     0.15600
C762        C  0.71061782  0.05050510  0.18813296    -0.18900
C763        C  0.76115578  0.08779560  0.17100105    -0.20700
C764        C  0.77459040  0.09292391  0.15722898    -0.13300
C765        C  0.75012488  0.06910793  0.14663088     0.03400
C766        C  0.71128515  0.04223114  0.14974462    -0.25400
H767        H  0.61820427  0.97683724  0.18266285     0.08500
H768        H  0.64008804  0.99033633  0.15842730     0.12100
H769        H  0.73018995  0.06741505  0.19643357     0.12000
H770        H  0.78089399  0.10533015  0.17915607     0.11800
H771        H  0.80468971  0.11355668  0.15503217     0.12300
H772        H  0.69218349  0.02394173  0.14155825     0.14300
C773        C  0.94305980  0.39763230  0.98162011    -0.05700
C774        C  0.95951328  0.42968651  0.99055953    -0.05700
C775        C  0.97193569  0.42698095  0.00383316    -0.23800
C776        C  0.96860797  0.39233259  0.00827807     0.18400
C777        C  0.95332640  0.36029351  0.99918766     0.15600
C778        C  0.94033102  0.36304973  0.98597664    -0.18900
C779        C  0.95107959  0.32598862  0.00351070    -0.20700
C780        C  0.96336653  0.32328499  0.01682787    -0.13300
C781        C  0.97726320  0.35456155  0.02606907     0.03400
C782        C  0.98004963  0.38910176  0.02169899    -0.25400
H783        H  0.96188611  0.45657947  0.98742072     0.08500
H784        H  0.98387465  0.45188012  0.01065647     0.12100
H785        H  0.92813346  0.33826934  0.97908503     0.12000
H786        H  0.93966120  0.30124318  0.99662794     0.11800
H787        H  0.96107439  0.29648072  0.02004499     0.12300
H788        H  0.99132772  0.41353930  0.02874669     0.14300
C789        C  0.96432434  0.58664033  0.91216716    -0.05700
C790        C  0.92890043  0.55509405  0.90784072    -0.05700
C791        C  0.91505464  0.51873192  0.91370141    -0.23800
C792        C  0.93600544  0.51344057  0.92421347     0.18400
C793        C  0.97177531  0.54496428  0.92857374     0.15600
C794        C  0.98599343  0.58116142  0.92237544    -0.18900
C795        C  0.99223850  0.54004820  0.93934105    -0.20700
C796        C  0.97726210  0.50439769  0.94585116    -0.13300
C797        C  0.94175437  0.47274736  0.94161707     0.03400
C798        C  0.92142264  0.47743089  0.93064953    -0.25400
H799        H  0.91167639  0.55867016  0.90000038     0.08500
H800        H  0.88756367  0.49497484  0.91023365     0.12100
H801        H  0.01303140  0.60543204  0.92594914     0.12000
H802        H  0.01960579  0.56391022  0.94285759     0.11800
H803        H  0.99369734  0.50161829  0.95420275     0.12300
H804        H  0.89390928  0.45338097  0.92733379     0.14300
C805        C  0.06706771  0.49687257  0.06446612    -0.05700
C806        C  0.10011707  0.52939052  0.06977401    -0.05700
C807        C  0.11324939  0.56581699  0.06398567    -0.23800
C808        C  0.09406593  0.57020039  0.05258329     0.18400
C809        C  0.06069511  0.53765340  0.04724610     0.15600
C810        C  0.04714617  0.50146270  0.05332598    -0.18900
C811        C  0.04193078  0.54157444  0.03566824    -0.20700
C812        C  0.05638749  0.57728982  0.02926104    -0.13300
C813        C  0.08968844  0.61002485  0.03437708     0.03400
C814        C  0.10812689  0.60628866  0.04621357    -0.25400
H815        H  0.11593193  0.52659283  0.07834657     0.08500
H816        H  0.13889093  0.59040836  0.06823178     0.12100
H817        H  0.02190108  0.47655421  0.04899563     0.12000
H818        H  0.01635091  0.51687265  0.03142942     0.11800
H819        H  0.04135089  0.57919100  0.02025030     0.12300
H820        H  0.13387150  0.63116662  0.05027186     0.14300
C821        C  0.05495895  0.72874152  0.94970399    -0.05700
C822        C  0.07088781  0.76062370  0.95869678    -0.05700
C823        C  0.08352316  0.75788700  0.97194748    -0.23800
C824        C  0.07970970  0.72302211  0.97644536     0.18400
C825        C  0.06243673  0.69044580  0.96762264     0.15600
C826        C  0.05049885  0.69362156  0.95428242    -0.18900
C827        C  0.05771604  0.65534049  0.97223864    -0.20700
C828        C  0.07064476  0.65266482  0.98542942    -0.13300
C829        C  0.08891619  0.68516386  0.99412345     0.03400
C830        C  0.09308964  0.72024015  0.98957311    -0.25400
H831        H  0.07453726  0.78788177  0.95532686     0.08500
H832        H  0.09651082  0.78306757  0.97863303     0.12100
H833        H  0.03768813  0.66872324  0.94743698     0.12000
H834        H  0.04427203  0.63004072  0.96561282     0.11800
H835        H  0.06705655  0.62536728  0.98871068     0.12300
H836        H  0.10667181  0.74542927  0.99625622     0.14300
C837        C  0.63265363  0.67767552  0.36145682    -0.05700
C838        C  0.61932097  0.64603973  0.35240696    -0.05700
C839        C  0.60863524  0.64842161  0.33877223    -0.23800
C840        C  0.61196660  0.68277840  0.33390393     0.18400
C841        C  0.62674431  0.71521397  0.34279016     0.15600
C842        C  0.63651535  0.71230063  0.35654678    -0.18900
C843        C  0.63124381  0.74991848  0.33779356    -0.20700
C844        C  0.62031153  0.75223249  0.32420070    -0.13300
C845        C  0.60414598  0.71974282  0.31545804     0.03400
C846        C  0.60044858  0.68515450  0.32035550    -0.25400
H847        H  0.61630029  0.61921046  0.35599366     0.08500
H848        H  0.59762686  0.62337020  0.33205694     0.12100
H849        H  0.64744231  0.73707683  0.36341948     0.12000
H850        H  0.64285193  0.77515117  0.34444116     0.11800
H851        H  0.62341900  0.77914392  0.32067198     0.12300
H852        H  0.58846514  0.66001652  0.31364209     0.14300
C853        C  0.61995584  0.90078513  0.24270635    -0.05700
C854        C  0.58970090  0.86648051  0.23710455    -0.05700
C855        C  0.57922393  0.83103427  0.24316129    -0.23800
C856        C  0.59818445  0.82941550  0.25514157     0.18400
C857        C  0.62904271  0.86370532  0.26072957     0.15600
C858        C  0.64015323  0.89906896  0.25434258    -0.18900
C859        C  0.64732780  0.86221126  0.27290713    -0.20700
C860        C  0.63459124  0.82717437  0.27968219    -0.13300
C861        C  0.60354854  0.79288410  0.27434536     0.03400
C862        C  0.58594738  0.79425539  0.26188057    -0.25400
H863        H  0.57369467  0.86716979  0.22817699     0.08500
H864        H  0.55549989  0.80502065  0.23873657     0.12100
H865        H  0.66310340  0.92543695  0.25889344     0.12000
H866        H  0.67098003  0.88825149  0.27735045     0.11800
H867        H  0.64886216  0.82705753  0.28919888     0.12300
H868        H  0.56198350  0.76816315  0.25759445     0.14300
C869        C  0.76345335  0.93591212  0.36462581    -0.05700
C870        C  0.79466462  0.93282158  0.36955976    -0.05700
C871        C  0.78828357  0.90188103  0.37792587    -0.23800
C872        C  0.75054253  0.87398789  0.38182783     0.18400
C873        C  0.71885960  0.87686318  0.37696376     0.15600
C874        C  0.72547396  0.90753025  0.36819295    -0.18900
C875        C  0.68122356  0.84930529  0.38112392    -0.20700
C876        C  0.67497148  0.81886793  0.38980641    -0.13300
C877        C  0.70620859  0.81526599  0.39450538     0.03400
C878        C  0.74404415  0.84331628  0.39051272    -0.25400
H879        H  0.82412033  0.95463602  0.36699815     0.08500
H880        H  0.81291715  0.90015905  0.38155188     0.12100
H881        H  0.70132976  0.91021057  0.36462063     0.12000
H882        H  0.65657199  0.85110215  0.37757363     0.11800
H883        H  0.64549920  0.79762055  0.39257739     0.12300
H884        H  0.76849357  0.84095851  0.39393265     0.14300
C885        C  0.74066866  0.00098286  0.32519921    -0.05700
C886        C  0.73197582  0.97196077  0.31528648    -0.05700
C887        C  0.71849893  0.97393672  0.30207014    -0.23800
C888        C  0.71293555  0.00466091  0.29865369     0.18400
C889        C  0.72018761  0.03316079  0.30875321     0.15600
C890        C  0.73429050  0.03130564  0.32187479    -0.18900
C891        C  0.71360663  0.06330135  0.30551942    -0.20700
C892        C  0.70033150  0.06548243  0.29232535    -0.13300
C893        C  0.69422970  0.03805262  0.28205917     0.03400
C894        C  0.70048241  0.00756565  0.28531280    -0.25400
H895        H  0.73689897  0.94849680  0.31758612     0.08500
H896        H  0.71283058  0.95168616  0.29447868     0.12100
H897        H  0.74059495  0.05369492  0.32949329     0.12000
H898        H  0.71884132  0.08525969  0.31318440     0.11800
H899        H  0.69566645  0.08911889  0.29003395     0.12300
H900        H  0.69530178  0.98593423  0.27749883     0.14300
C901        C  0.39307445  0.15937868  0.72867072    -0.05700
C902        C  0.36614364  0.15811710  0.71904034    -0.05700
C903        C  0.37426361  0.19050833  0.71123860    -0.23800
C904        C  0.40931489  0.22510616  0.71300874     0.18400
C905        C  0.43626366  0.22731706  0.72292416     0.15600
C906        C  0.42815647  0.19432526  0.73061179    -0.18900
C907        C  0.47091090  0.26243238  0.72486301    -0.20700
C908        C  0.47880145  0.29488610  0.71700698    -0.13300
C909        C  0.45254856  0.29262590  0.70688579     0.03400
C910        C  0.41779847  0.25747678  0.70498119    -0.25400
H911        H  0.33914267  0.13160712  0.71718725     0.08500
H912        H  0.35322396  0.18836861  0.70371366     0.12100
H913        H  0.44918507  0.19577001  0.73799917     0.12000
H914        H  0.49188705  0.26481137  0.73245823     0.11800
H915        H  0.50569431  0.32161322  0.71870376     0.12300
H916        H  0.39695830  0.25539951  0.69737030     0.14300
C917        C  0.31214257  0.00989154  0.69580762    -0.05700
C918        C  0.30025318  0.97748956  0.68723328    -0.05700
C919        C  0.28793537  0.97729628  0.67360550    -0.23800
C920        C  0.28820745  0.00984571  0.66829273     0.18400
C921        C  0.30110299  0.04284197  0.67679446     0.15600
C922        C  0.31246405  0.04244906  0.69050169    -0.18900
C923        C  0.30258121  0.07582871  0.67145839    -0.20700
C924        C  0.29105213  0.07612678  0.65782174    -0.13300
C925        C  0.27726671  0.04326135  0.64933613     0.03400
C926        C  0.27594985  0.01011084  0.65464745    -0.25400
H927        H  0.29986855  0.95214921  0.69115629     0.08500
H928        H  0.27833995  0.95180625  0.66721955     0.12100
H929        H  0.32220186  0.06780631  0.69700118     0.12000
H930        H  0.31262587  0.10140730  0.67783835     0.11800
H931        H  0.29224102  0.10194848  0.65400563     0.12300
H932        H  0.26571259  0.98470375  0.64815285     0.14300
C933        C  0.33961149  0.06251779  0.78470076    -0.05700
C934        C  0.35494899  0.09735748  0.79204560    -0.05700
C935        C  0.34147484  0.09816304  0.80546124    -0.23800
C936        C  0.31308986  0.06397872  0.81178876     0.18400
C937        C  0.29855858  0.02864896  0.80459966     0.15600
C938        C  0.31155296  0.02823236  0.79103761    -0.18900
C939        C  0.27090929  0.99438965  0.81102195    -0.20700
C940        C  0.25684447  0.99514950  0.82431151    -0.13300
C941        C  0.26991311  0.03022905  0.83137386     0.03400
C942        C  0.29858400  0.06455739  0.82508277    -0.25400
H943        H  0.37648874  0.12402124  0.78724042     0.08500
H944        H  0.35302242  0.12549808  0.81084161     0.12100
H945        H  0.29990224  0.00125035  0.78538107     0.12000
H946        H  0.25975282  0.96703399  0.80568528     0.11800
H947        H  0.23492704  0.96831099  0.82888821     0.12300
H948        H  0.30931525  0.09185445  0.83042891     0.14300
C949        C  0.10806479  0.83432434  0.89509134    -0.05700
C950        C  0.13860660  0.83458565  0.88763183    -0.05700
C951        C  0.16465657  0.86685662  0.87985938    -0.23800
C952        C  0.16075164  0.89954590  0.87942272     0.18400
C953        C  0.13061383  0.89978886  0.88710494     0.15600
C954        C  0.10459824  0.86735930  0.89483006    -0.18900
C955        C  0.12669614  0.93238831  0.88687582    -0.20700
C956        C  0.15258677  0.96467328  0.87922955    -0.13300
C957        C  0.18261014  0.96490013  0.87147234     0.03400
C958        C  0.18637984  0.93201019  0.87149784    -0.25400
H959        H  0.14179369  0.80944525  0.88749414     0.08500
H960        H  0.18759112  0.86607794  0.87407779     0.12100
H961        H  0.08121368  0.86770352  0.90046590     0.12000
H962        H  0.10370279  0.93301570  0.89267723     0.11800
H963        H  0.14893145  0.98954405  0.87931844     0.12300
H964        H  0.20962477  0.93201625  0.86563657     0.14300
C965        C  0.18757537  0.78218981  0.77304370    -0.05700
C966        C  0.21775229  0.78172519  0.76567908    -0.05700
C967        C  0.24507031  0.81435672  0.75839346    -0.23800
C968        C  0.24207786  0.84760518  0.75814995     0.18400
C969        C  0.21096707  0.84767921  0.76517643     0.15600
C970        C  0.18423982  0.81520054  0.77268261    -0.18900
C971        C  0.20723398  0.88036194  0.76470394    -0.20700
C972        C  0.23467508  0.91318736  0.75766485    -0.13300
C973        C  0.26659245  0.91413154  0.75101944     0.03400
C974        C  0.26981491  0.88089831  0.75116333    -0.25400
H975        H  0.22065778  0.75641707  0.76581877     0.08500
H976        H  0.26858066  0.81365159  0.75301082     0.12100
H977        H  0.16059858  0.81547238  0.77816434     0.12000
H978        H  0.18335453  0.88073466  0.76993854     0.11800
H979        H  0.23132451  0.93823258  0.75773609     0.12300
H980        H  0.29407611  0.88105592  0.74601569     0.14300
C981        C  0.10190694  0.72687600  0.81390994    -0.05700
C982        C  0.12285197  0.75944784  0.82237933    -0.05700
C983        C  0.11039420  0.75982713  0.83599709    -0.23800
C984        C  0.07686910  0.72768346  0.84123859     0.18400
C985        C  0.05478239  0.69560231  0.83252224     0.15600
C986        C  0.06729388  0.69556018  0.81895033    -0.18900
C987        C  0.02098800  0.66359272  0.83760127    -0.20700
C988        C  0.00930552  0.66311605  0.85133006    -0.13300
C989        C  0.03161867  0.69436706  0.86016539     0.03400
C990        C  0.06527727  0.72671235  0.85508008    -0.25400
H991        H  0.14958631  0.78387263  0.81868971     0.08500
H992        H  0.12744222  0.78479427  0.84252774     0.12100
H993        H  0.05050542  0.67046441  0.81243078     0.12000
H994        H  0.00380038  0.63883679  0.83099416     0.11800
H995        H  0.98328419  0.63804749  0.85513921     0.12300
H996        H  0.08223692  0.75112411  0.86187819     0.14300
C997        C  0.88637374  0.40203374  0.19843774    -0.05700
C998        C  0.86913716  0.40097668  0.21137687    -0.05700
C999        C  0.87649720  0.43504576  0.21799932    -0.23800
C1000       C  0.90140395  0.47080548  0.21184518     0.18400
C1001       C  0.91826648  0.47213312  0.19872534     0.15600
C1002       C  0.91048752  0.43787950  0.19209506    -0.18900
C1003       C  0.94369409  0.50776543  0.19263384    -0.20700
C1004       C  0.95390067  0.54182555  0.19978478    -0.13300
C1005       C  0.93838032  0.54091532  0.21304974     0.03400
C1006       C  0.91108625  0.50525554  0.21883621    -0.25400
H1007       H  0.85032037  0.37383090  0.21649404     0.08500
H1008       H  0.86332912  0.43344527  0.22806076     0.12100
H1009       H  0.92399742  0.43932540  0.18211606     0.12000
H1010       H  0.95678129  0.50928172  0.18256091     0.11800
H1011       H  0.97500743  0.56894276  0.19513252     0.12300
H1012       H  0.89938668  0.50419544  0.22915200     0.14300
C1013       C  0.87317081  0.64669630  0.23287680    -0.05700
C1014       C  0.83829891  0.61691122  0.23841689    -0.05700
C1015       C  0.80298029  0.60692456  0.23226104    -0.23800
C1016       C  0.80191276  0.62616232  0.22032232     0.18400
C1017       C  0.83669895  0.65644566  0.21471425     0.15600
C1018       C  0.87208368  0.66684947  0.22112366    -0.18900
C1019       C  0.83553128  0.67509059  0.20259679    -0.20700
C1020       C  0.80024516  0.66358711  0.19603660    -0.13300
C1021       C  0.76546861  0.63344396  0.20154168     0.03400
C1022       C  0.76663785  0.61506659  0.21377675    -0.25400
H1023       H  0.83837020  0.60089797  0.24742322     0.08500
H1024       H  0.77655568  0.58361304  0.23667809     0.12100
H1025       H  0.89882809  0.68947592  0.21661198     0.12000
H1026       H  0.86192374  0.69828848  0.19811618     0.11800
H1027       H  0.80022901  0.67834704  0.18665306     0.12300
H1028       H  0.74016320  0.59164918  0.21813134     0.14300
C1029       C  0.01541857  0.72846361  0.19785717    -0.05700
C1030       C  0.04271710  0.76742556  0.19578025    -0.05700
C1031       C  0.04280660  0.78563241  0.18348715    -0.23800
C1032       C  0.01493040  0.76530776  0.17325957     0.18400
C1033       C  0.98672932  0.72620338  0.17537734     0.15600
C1034       C  0.98753846  0.70776803  0.18762297    -0.18900
C1035       C  0.95820695  0.70647290  0.16524653    -0.20700
C1036       C  0.95815986  0.72514310  0.15300250    -0.13300
C1037       C  0.98691555  0.76363992  0.15066188     0.03400
C1038       C  0.01493207  0.78357919  0.16094421    -0.25400
H1039       H  0.06419356  0.78366496  0.20365821     0.08500
H1040       H  0.06447260  0.81566778  0.18202480     0.12100
H1041       H  0.96602789  0.67779494  0.18937535     0.12000
H1042       H  0.93613715  0.67660227  0.16675133     0.11800
H1043       H  0.93625908  0.70920663  0.14522747     0.12300
H1044       H  0.03695104  0.81346602  0.15936946     0.14300
C1045       C  0.37759156  0.88993408  0.28038945    -0.05700
C1046       C  0.37803160  0.87485609  0.26719441    -0.05700
C1047       C  0.41289032  0.88852161  0.25985814    -0.23800
C1048       C  0.44772851  0.91777316  0.26553659     0.18400
C1049       C  0.44760239  0.93236169  0.27892719     0.15600
C1050       C  0.41279980  0.91812872  0.28628207    -0.18900
C1051       C  0.48208491  0.96192013  0.28460344    -0.20700
C1052       C  0.51627966  0.97806213  0.27685865    -0.13300
C1053       C  0.51671619  0.96465942  0.26334615     0.03400
C1054       C  0.48241025  0.93370334  0.25788433    -0.25400
H1055       H  0.35141629  0.85294152  0.26245630     0.08500
H1056       H  0.41246180  0.87689334  0.24961011     0.12100
H1057       H  0.41316383  0.93014125  0.29645341     0.12000
H1058       H  0.48240230  0.97331147  0.29489026     0.11800
H1059       H  0.54223334  0.00169058  0.28135247     0.12300
H1060       H  0.48224245  0.92313155  0.24745898     0.14300
C1061       C  0.23430659  0.82604599  0.28193772    -0.05700
C1062       C  0.20159823  0.82327469  0.28865102    -0.05700
C1063       C  0.16556545  0.80495871  0.28222290    -0.23800
C1064       C  0.16132975  0.78879425  0.26896421     0.18400
C1065       C  0.19370545  0.79085465  0.26212153     0.15600
C1066       C  0.23006758  0.80958867  0.26862721    -0.18900
C1067       C  0.18903092  0.77401415  0.24891881    -0.20700
C1068       C  0.15257881  0.75500471  0.24264543    -0.13300
C1069       C  0.12023483  0.75286134  0.24939893     0.03400
C1070       C  0.12504408  0.77018690  0.26254232    -0.25400
H1071       H  0.20379593  0.83570941  0.29887350     0.08500
H1072       H  0.14099517  0.80347885  0.28763293     0.12100
H1073       H  0.25492168  0.81138928  0.26332590     0.12000
H1074       H  0.21344350  0.77516329  0.24351482     0.11800
H1075       H  0.14964732  0.74162146  0.23256201     0.12300
H1076       H  0.10033121  0.76832535  0.26798566     0.14300
C1077       C  0.80770590  0.73860754  0.38182332    -0.05700
C1078       C  0.80796756  0.72344897  0.36860902    -0.05700
C1079       C  0.84291783  0.73284097  0.36202177    -0.23800
C1080       C  0.87831929  0.75724077  0.36857718     0.18400
C1081       C  0.87854639  0.77386724  0.38158835     0.15600
C1082       C  0.84333524  0.76481863  0.38804618    -0.18900
C1083       C  0.91395327  0.79806285  0.38817968    -0.20700
C1084       C  0.94872906  0.80456608  0.38220302    -0.13300
C1085       C  0.94884377  0.78717053  0.36946661     0.03400
C1086       C  0.91337024  0.76419759  0.36256479    -0.25400
H1087       H  0.78110546  0.70335113  0.36352467     0.08500
H1088       H  0.84220715  0.72000500  0.35199384     0.12100
H1089       H  0.84376581  0.77677158  0.39823550     0.12000
H1090       H  0.91469429  0.81122328  0.39813858     0.11800
H1091       H  0.97547446  0.82266048  0.38771488     0.12300
H1092       H  0.91278031  0.75074539  0.35268511     0.14300
C1093       C  0.01626805  0.75846894  0.33241034    -0.05700
C1094       C  0.04980318  0.77291317  0.32411521    -0.05700
C1095       C  0.04830371  0.75794697  0.31081776    -0.23800
C1096       C  0.01333661  0.72785466  0.30562391     0.18400
C1097       C  0.97974060  0.71173664  0.31408630     0.15600
C1098       C  0.98133929  0.72736202  0.32738367    -0.18900
C1099       C  0.94500834  0.68085873  0.30894770    -0.20700
C1100       C  0.94333736  0.66699147  0.29538927    -0.13300
C1101       C  0.97618735  0.68419196  0.28676084     0.03400
C1102       C  0.01121093  0.71425945  0.29198126    -0.25400
H1103       H  0.07704607  0.79672314  0.32772210     0.08500
H1104       H  0.07438522  0.77035500  0.30450230     0.12100
H1105       H  0.95535579  0.71559059  0.33374186     0.12000
H1106       H  0.91901900  0.66794031  0.31531153     0.11800
H1107       H  0.91610016  0.64389982  0.29144961     0.12300
H1108       H  0.03663862  0.72745212  0.28530644     0.14300
C1109       C  0.42445843  0.30152086  0.44592849    -0.05700
C1110       C  0.38757562  0.27392210  0.45094854    -0.05700
C1111       C  0.36970904  0.23586869  0.44642801    -0.23800
C1112       C  0.38841855  0.22446435  0.43684804     0.18400
C1113       C  0.42564929  0.25177567  0.43179573     0.15600
C1114       C  0.44338871  0.29027387  0.43629231    -0.18900
C1115       C  0.44434422  0.24008039  0.42228427    -0.20700
C1116       C  0.42592173  0.20207446  0.41753152    -0.13300
C1117       C  0.38841787  0.17493656  0.42220868     0.03400
C1118       C  0.37014667  0.18630660  0.43208305    -0.25400
H1119       H  0.37221310  0.28180225  0.45835690     0.08500
H1120       H  0.34119805  0.21539096  0.45040784     0.12100
H1121       H  0.47194423  0.31121146  0.43247252     0.12000
H1122       H  0.47296072  0.26042947  0.41835941     0.11800
H1123       H  0.44086872  0.19414987  0.40995807     0.12300
H1124       H  0.34128033  0.16580831  0.43577390     0.14300
C1125       C  0.09092717  0.84053719  0.37212785    -0.05700
C1126       C  0.12384898  0.83931561  0.36762755    -0.05700
C1127       C  0.15981981  0.86226449  0.37395567    -0.23800
C1128       C  0.16389750  0.88730578  0.38487431     0.18400
C1129       C  0.13107469  0.88854849  0.38965112     0.15600
C1130       C  0.09479573  0.86498441  0.38334771    -0.18900
C1131       C  0.13533159  0.91409638  0.40041705    -0.20700
C1132       C  0.17186383  0.93907338  0.40605002    -0.13300
C1133       C  0.20494817  0.93872014  0.40120846     0.03400
C1134       C  0.20045471  0.91198156  0.39077899    -0.25400
H1135       H  0.12193720  0.82068501  0.35911164     0.08500
H1136       H  0.18462193  0.86087823  0.37013745     0.12100
H1137       H  0.06985791  0.86642258  0.38696779     0.12000
H1138       H  0.11054485  0.91548452  0.40424487     0.11800
H1139       H  0.17432898  0.95929888  0.41403398     0.12300
H1140       H  0.22564352  0.91158643  0.38678184     0.14300
C1141       C  0.31208819  0.90148485  0.32155470    -0.05700
C1142       C  0.28439258  0.88138032  0.33194623    -0.05700
C1143       C  0.28631038  0.89900552  0.34471288    -0.23800
C1144       C  0.31532611  0.93729583  0.34706077     0.18400
C1145       C  0.34285064  0.95794928  0.33651079     0.15600
C1146       C  0.34147428  0.93964530  0.32392636    -0.18900
C1147       C  0.37089365  0.99671264  0.33864679    -0.20700
C1148       C  0.37172619  0.01487808  0.35117397    -0.13300
C1149       C  0.34513453  0.99422626  0.36181120     0.03400
C1150       C  0.31704740  0.95542183  0.35972087    -0.25400
H1151       H  0.26149727  0.85195425  0.33021301     0.08500
H1152       H  0.26485902  0.88290610  0.35266707     0.12100
H1153       H  0.36250367  0.95544683  0.31580460     0.12000
H1154       H  0.39200728  0.01297952  0.33061992     0.11800
H1155       H  0.39365814  0.04479568  0.35268481     0.12300
H1156       H  0.29617872  0.93955424  0.36788178     0.14300
C1157       C  0.56464644  0.74552384  0.53539769    -0.05700
C1158       C  0.54596575  0.74644344  0.54775241    -0.05700
C1159       C  0.55448745  0.78137853  0.55380974    -0.23800
C1160       C  0.58197829  0.81606397  0.54767061     0.18400
C1161       C  0.59985330  0.81554356  0.53497716     0.15600
C1162       C  0.59092012  0.78031413  0.52887401    -0.18900
C1163       C  0.62740479  0.85026722  0.52886195    -0.20700
C1164       C  0.63864832  0.88507328  0.53562846    -0.13300
C1165       C  0.62241529  0.88578974  0.54861229     0.03400
C1166       C  0.59307724  0.85114853  0.55433520    -0.25400
H1167       H  0.52517438  0.72011053  0.55293040     0.08500
H1168       H  0.54030716  0.78123770  0.56348626     0.12100
H1169       H  0.60533504  0.78008925  0.51930096     0.12000
H1170       H  0.64121649  0.85044940  0.51908946     0.11800
H1171       H  0.66121099  0.91133224  0.53091805     0.12300
H1172       H  0.58021978  0.85123217  0.56430400     0.14300
C1173       C  0.64555593  0.09813718  0.48390005    -0.05700
C1174       C  0.61366967  0.08348197  0.49301167    -0.05700
C1175       C  0.61593210  0.07078387  0.50627703    -0.23800
C1176       C  0.64990869  0.07194053  0.51053610     0.18400
C1177       C  0.68171542  0.08539380  0.50127388     0.15600
C1178       C  0.67947452  0.09877978  0.48807500    -0.18900
C1179       C  0.71526013  0.08540580  0.50541055    -0.20700
C1180       C  0.71743695  0.07264902  0.51869389    -0.13300
C1181       C  0.68644364  0.06051128  0.52809196     0.03400
C1182       C  0.65267422  0.06005514  0.52393062    -0.25400
H1183       H  0.58729073  0.08274502  0.49000818     0.08500
H1184       H  0.59120963  0.06027851  0.51323027     0.12100
H1185       H  0.70407370  0.10957746  0.48104220     0.12000
H1186       H  0.73980883  0.09540086  0.49840412     0.11800
H1187       H  0.74367557  0.07317874  0.52175824     0.12300
H1188       H  0.62844934  0.05018662  0.53110596     0.14300
C1189       C  0.57044485  0.10099556  0.44403007    -0.05700
C1190       C  0.53664716  0.07096332  0.45016358    -0.05700
C1191       C  0.50080614  0.05616772  0.44369793    -0.23800
C1192       C  0.49778749  0.07116426  0.43097184     0.18400
C1193       C  0.53129562  0.10141550  0.42465074     0.15600
C1194       C  0.56748849  0.11603670  0.43117453    -0.18900
C1195       C  0.52781766  0.11675966  0.41201714    -0.20700
C1196       C  0.49143465  0.10277755  0.40588462    -0.13300
C1197       C  0.45794234  0.07271492  0.41213617     0.03400
C1198       C  0.46159228  0.05678520  0.42462733    -0.25400
H1199       H  0.53776945  0.05864119  0.46001444     0.08500
H1200       H  0.47536343  0.03307206  0.44870827     0.12100
H1201       H  0.59315031  0.13921405  0.42629745     0.12000
H1202       H  0.55312280  0.14000554  0.40700193     0.11800
H1203       H  0.48944934  0.11572203  0.39630967     0.12300
H1204       H  0.43602435  0.03402898  0.42971319     0.14300
C1205       C  0.43841357  0.97991653  0.53932982    -0.05700
C1206       C  0.47211887  0.01506011  0.53625333    -0.05700
C1207       C  0.50697090  0.02561439  0.54288988    -0.23800
C1208       C  0.50905163  0.00095984  0.55259627     0.18400
C1209       C  0.47539954  0.96562033  0.55588689     0.15600
C1210       C  0.44010635  0.95553684  0.54937837    -0.18900
C1211       C  0.47796640  0.94058180  0.56533014    -0.20700
C1212       C  0.51369298  0.94993994  0.57110046    -0.13300
C1213       C  0.54737243  0.98486523  0.56776582     0.03400
C1214       C  0.54456000  0.01059308  0.55870440    -0.25400
H1215       H  0.47157428  0.03458440  0.52867894     0.08500
H1216       H  0.53248029  0.05277792  0.54023102     0.12100
H1217       H  0.41438006  0.92829657  0.55179544     0.12000
H1218       H  0.45255870  0.91334218  0.56798056     0.11800
H1219       H  0.51507420  0.92958946  0.57804267     0.12300
H1220       H  0.57035437  0.03736386  0.55587779     0.14300
C1221       C  0.32463040  0.01072650  0.45198211    -0.05700
C1222       C  0.29818133  0.00884326  0.46203582    -0.05700
C1223       C  0.30360522  0.00419025  0.47604802    -0.23800
C1224       C  0.33598029  0.00212433  0.48019228     0.18400
C1225       C  0.36361625  0.00548725  0.47020514     0.15600
C1226       C  0.35751285  0.00934521  0.45609637    -0.18900
C1227       C  0.39639052  0.00420829  0.47451152    -0.20700
C1228       C  0.40060779  0.99752896  0.48850400    -0.13300
C1229       C  0.37198600  0.99187744  0.49828149     0.03400
C1230       C  0.34045012  0.99550743  0.49411815    -0.25400
H1231       H  0.27290430  0.01019733  0.45899586     0.08500
H1232       H  0.28231968  0.00184553  0.48362212     0.12100
H1233       H  0.37837375  0.01158139  0.44833839     0.12000
H1234       H  0.41807112  0.00717052  0.46700938     0.11800
H1235       H  0.42505905  0.99471751  0.49152478     0.12300
H1236       H  0.31848177  0.99167150  0.50166283     0.14300
C1237       C  0.05884585  0.25705750  0.60832444    -0.05700
C1238       C  0.06116625  0.24441524  0.59488645    -0.05700
C1239       C  0.09719827  0.25473239  0.58901604    -0.23800
C1240       C  0.13138382  0.27805859  0.59646703     0.18400
C1241       C  0.12932462  0.29051656  0.61003022     0.15600
C1242       C  0.09321734  0.27971915  0.61588300    -0.18900
C1243       C  0.16344162  0.31436179  0.61741633    -0.20700
C1244       C  0.19951944  0.32676605  0.61123436    -0.13300
C1245       C  0.20197454  0.31504430  0.59765600     0.03400
C1246       C  0.16762184  0.29001866  0.59044129    -0.25400
H1247       H  0.03523244  0.22688578  0.58887297     0.08500
H1248       H  0.09836861  0.24498146  0.57857530     0.12100
H1249       H  0.09215089  0.28980248  0.62627870     0.12000
H1250       H  0.16222067  0.32412758  0.62785047     0.11800
H1251       H  0.22544457  0.34604686  0.61697990     0.12300
H1252       H  0.16893518  0.28094241  0.57989717     0.14300
C1253       C  0.80094296  0.10946157  0.57731438    -0.05700
C1254       C  0.83314627  0.10885541  0.57168986    -0.05700
C1255       C  0.87010995  0.13290146  0.57701382    -0.23800
C1256       C  0.87533896  0.15736111  0.58825027     0.18400
C1257       C  0.84322754  0.15893711  0.59370380     0.15600
C1258       C  0.80634608  0.13548605  0.58803671    -0.18900
C1259       C  0.84820871  0.18264080  0.60514488    -0.20700
C1260       C  0.88432885  0.20354959  0.61143942    -0.13300
C1261       C  0.91630077  0.20153759  0.60631618     0.03400
C1262       C  0.91178571  0.17906179  0.59447456    -0.25400
H1263       H  0.82956146  0.08904747  0.56336635     0.08500
H1264       H  0.89434476  0.13135642  0.57267302     0.12100
H1265       H  0.78156718  0.13576372  0.59253954     0.12000
H1266       H  0.82396733  0.18423764  0.60945648     0.11800
H1267       H  0.88706589  0.22103968  0.62045296     0.12300
H1268       H  0.93616131  0.17722274  0.59044342     0.14300
C1269       C  0.62885686  0.15171686  0.69773392    -0.05700
C1270       C  0.62665316  0.17303778  0.70898367    -0.05700
C1271       C  0.59117890  0.16198202  0.71540410    -0.23800
C1272       C  0.55742462  0.12920804  0.71077377     0.18400
C1273       C  0.55910946  0.10823493  0.69922189     0.15600
C1274       C  0.59469068  0.11983734  0.69269435    -0.18900
C1275       C  0.52541950  0.07519516  0.69470112    -0.20700
C1276       C  0.49063577  0.06206363  0.70194349    -0.13300
C1277       C  0.48895373  0.08196130  0.71375860     0.03400
C1278       C  0.52233892  0.11621870  0.71785155    -0.25400
H1279       H  0.65244465  0.19791071  0.71299095     0.08500
H1280       H  0.59031804  0.17846543  0.72422296     0.12100
H1281       H  0.59586766  0.10309501  0.68401867     0.12000
H1282       H  0.52622624  0.05885131  0.68582639     0.11800
H1283       H  0.46538559  0.03565138  0.69854882     0.12300
H1284       H  0.52152736  0.13200555  0.72691150     0.14300
C1285       C  0.70269881  0.13005589  0.66170504    -0.05700
C1286       C  0.73484587  0.14624285  0.65270739    -0.05700
C1287       C  0.73297872  0.12931860  0.63975424    -0.23800
C1288       C  0.69906465  0.09572954  0.63567604     0.18400
C1289       C  0.66711900  0.07830448  0.64488480     0.15600
C1290       C  0.66909205  0.09565746  0.65778915    -0.18900
C1291       C  0.63347262  0.04425713  0.64090700    -0.20700
C1292       C  0.63114144  0.02813491  0.62774520    -0.13300
C1293       C  0.66216686  0.04620303  0.61832715     0.03400
C1294       C  0.69626342  0.07972134  0.62243573    -0.25400
H1295       H  0.76094293  0.17271303  0.65547387     0.08500
H1296       H  0.75780794  0.14286667  0.63282660     0.12100
H1297       H  0.64419563  0.08262148  0.66470660     0.12000
H1298       H  0.60878834  0.03044846  0.64788708     0.11800
H1299       H  0.60463796  0.00237209  0.62473681     0.12300
H1300       H  0.72049906  0.09356710  0.61524515     0.14300
C1301       C  0.73017240  0.85621663  0.09497281    -0.05700
C1302       C  0.77043195  0.88138080  0.09533128    -0.05700
C1303       C  0.78573515  0.91941854  0.09966593    -0.23800
C1304       C  0.76094803  0.93294760  0.10351041     0.18400
C1305       C  0.72041572  0.90731668  0.10374805     0.15600
C1306       C  0.70531608  0.86895876  0.09964836    -0.18900
C1307       C  0.69561031  0.92079650  0.10764567    -0.20700
C1308       C  0.71084003  0.95928225  0.11134497    -0.13300
C1309       C  0.75096292  0.98491057  0.11094282     0.03400
C1310       C  0.77595320  0.97174012  0.10696962    -0.25400
H1311       H  0.79001047  0.87199494  0.09169272     0.08500
H1312       H  0.81683861  0.93855223  0.09954726     0.12100
H1313       H  0.67421622  0.84983452  0.09916729     0.12000
H1314       H  0.66451960  0.90160258  0.10786639     0.11800
H1315       H  0.69128126  0.96912940  0.11453662     0.12300
H1316       H  0.80698883  0.99142634  0.10692865     0.14300
C1317       C  0.81490988  0.76409626  0.07972581    -0.05700
C1318       C  0.84617370  0.80188224  0.07799562    -0.05700
C1319       C  0.88215435  0.81336881  0.08394994    -0.23800
C1320       C  0.88760492  0.78743386  0.09187378     0.18400
C1321       C  0.85683446  0.74905626  0.09333647     0.15600
C1322       C  0.82086295  0.73753441  0.08715713    -0.18900
C1323       C  0.86209469  0.72324200  0.10142066    -0.20700
C1324       C  0.89674292  0.73581449  0.10856270    -0.13300
C1325       C  0.92708669  0.77425219  0.10756839     0.03400
C1326       C  0.92274236  0.79964706  0.09882348    -0.25400
H1327       H  0.84265447  0.82297669  0.07226996     0.08500
H1328       H  0.90540247  0.84286385  0.08267477     0.12100
H1329       H  0.79717583  0.70829733  0.08857959     0.12000
H1330       H  0.83896845  0.69365151  0.10259426     0.11800
H1331       H  0.89953815  0.71554598  0.11509886     0.12300
H1332       H  0.94586752  0.82936907  0.09800555     0.14300
C1333       C  0.66228157  0.67990896  0.11589562    -0.05700
C1334       C  0.63269191  0.67414171  0.12526279    -0.05700
C1335       C  0.63228392  0.66143586  0.13884674    -0.23800
C1336       C  0.66189026  0.65506923  0.14331901     0.18400
C1337       C  0.69244323  0.66224356  0.13406217     0.15600
C1338       C  0.69219855  0.67415805  0.12043180    -0.18900
C1339       C  0.72282179  0.65731766  0.13854645    -0.20700
C1340       C  0.72281885  0.64492105  0.15205557    -0.13300
C1341       C  0.69212355  0.63653531  0.16125147     0.03400
C1342       C  0.66162282  0.64168562  0.15683797    -0.25400
H1343       H  0.60947863  0.67865855  0.12198356     0.08500
H1344       H  0.60882486  0.65649544  0.14582321     0.12100
H1345       H  0.71558234  0.67930497  0.11335953     0.12000
H1346       H  0.74657109  0.66298590  0.13159603     0.11800
H1347       H  0.74656977  0.64113407  0.15523805     0.12300
H1348       H  0.63810227  0.63577085  0.16394828     0.14300
C1349       C  0.73904140  0.62638947  0.94090223    -0.05700
C1350       C  0.73991698  0.60804956  0.92853330    -0.05700
C1351       C  0.77513768  0.61515128  0.92289582    -0.23800
C1352       C  0.81000863  0.64094304  0.92947290     0.18400
C1353       C  0.80945248  0.65903763  0.94203096     0.15600
C1354       C  0.77402787  0.65147283  0.94770177    -0.18900
C1355       C  0.84438007  0.68517717  0.94851065    -0.20700
C1356       C  0.87968743  0.69459270  0.94226830    -0.13300
C1357       C  0.88053837  0.67769990  0.92952050     0.03400
C1358       C  0.84544873  0.64997414  0.92341752    -0.25400
H1359       H  0.71341719  0.58835379  0.92316415     0.08500
H1360       H  0.77514125  0.60100117  0.91325849     0.12100
H1361       H  0.77389622  0.66584078  0.95727049     0.12000
H1362       H  0.84439663  0.69919516  0.95818448     0.11800
H1363       H  0.90624300  0.71601798  0.94718792     0.12300
H1364       H  0.84554786  0.63659742  0.91359471     0.14300
C1365       C  0.71100601  0.70560456  0.02651061    -0.05700
C1366       C  0.74183742  0.72751953  0.01738925    -0.05700
C1367       C  0.73927259  0.71684169  0.00343259    -0.23800
C1368       C  0.70539717  0.68481253  0.99844644     0.18400
C1369       C  0.67387689  0.66323987  0.00757035     0.15600
C1370       C  0.67719098  0.67341191  0.02162135    -0.18900
C1371       C  0.63954779  0.63203541  0.00246734    -0.20700
C1372       C  0.63685568  0.62156764  0.98846840    -0.13300
C1373       C  0.66865649  0.64187970  0.97951401     0.03400
C1374       C  0.70261851  0.67383392  0.98450822    -0.25400
H1375       H  0.76787540  0.75269434  0.02110025     0.08500
H1376       H  0.76354384  0.73375642  0.99652889     0.12100
H1377       H  0.65306756  0.65709900  0.02867845     0.12000
H1378       H  0.61503744  0.61549912  0.00932363     0.11800
H1379       H  0.61050921  0.59672604  0.98477568     0.12300
H1380       H  0.72709291  0.68987462  0.97757142     0.14300
C1381       C  0.29410351  0.48007804  0.03262604    -0.05700
C1382       C  0.29079057  0.49887991  0.04448271    -0.05700
C1383       C  0.25477114  0.48661023  0.05064511    -0.23800
C1384       C  0.22137901  0.45511659  0.04514210     0.18400
C1385       C  0.22415422  0.43596006  0.03321760     0.15600
C1386       C  0.26046442  0.44866645  0.02698637    -0.18900
C1387       C  0.19062611  0.40412048  0.02787356    -0.20700
C1388       C  0.15481314  0.39087211  0.03447942    -0.13300
C1389       C  0.15188615  0.40941264  0.04649378     0.03400
C1390       C  0.18540203  0.44201677  0.05158753    -0.25400
H1391       H  0.31607539  0.52321666  0.04901672     0.08500
H1392       H  0.25308919  0.50157144  0.05980476     0.12100
H1393       H  0.26252161  0.43374085  0.01787956     0.12000
H1394       H  0.19220924  0.38903774  0.01873583     0.11800
H1395       H  0.12961076  0.36559489  0.03036553     0.12300
H1396       H  0.18383899  0.45668739  0.06085871     0.14300
C1397       C  0.43587852  0.55843736  0.03494748    -0.05700
C1398       C  0.43391320  0.58384158  0.04458308    -0.05700
C1399       C  0.46594220  0.60851413  0.05264669    -0.23800
C1400       C  0.50046787  0.60785963  0.05141579     0.18400
C1401       C  0.50292315  0.58250426  0.04175799     0.15600
C1402       C  0.47076990  0.55829538  0.03343684    -0.18900
C1403       C  0.53738033  0.58158417  0.04070873    -0.20700
C1404       C  0.56913714  0.60573411  0.04904403    -0.13300
C1405       C  0.56723926  0.63154232  0.05854146     0.03400
C1406       C  0.53255873  0.63223717  0.05967330    -0.25400
H1407       H  0.40743801  0.58462943  0.04590020     0.08500
H1408       H  0.46354755  0.62781191  0.05996379     0.12100
H1409       H  0.47251495  0.53858931  0.02612987     0.12000
H1410       H  0.53987502  0.56236566  0.03338212     0.11800
H1411       H  0.59559315  0.60490216  0.04776425     0.12300
H1412       H  0.53061601  0.65205130  0.06686954     0.14300
C1413       C  0.24962298  0.10538903  0.86749435    -0.05700
C1414       C  0.23366281  0.10736663  0.88035825    -0.05700
C1415       C  0.24251330  0.14280583  0.88605669    -0.23800
C1416       C  0.26761777  0.17695181  0.87903477     0.18400
C1417       C  0.28305984  0.17538680  0.86593281     0.15600
C1418       C  0.27380467  0.13963613  0.86020736    -0.18900
C1419       C  0.30850149  0.20966641  0.85900399    -0.20700
C1420       C  0.32008895  0.24517409  0.86533312    -0.13300
C1421       C  0.30602386  0.24695945  0.87861685     0.03400
C1422       C  0.27874684  0.21263140  0.88518709    -0.25400
H1423       H  0.21478531  0.08152530  0.88618086     0.08500
H1424       H  0.23039001  0.14352897  0.89610685     0.12100
H1425       H  0.28617597  0.13863057  0.85024290     0.12000
H1426       H  0.32045209  0.20901172  0.84891085     0.11800
H1427       H  0.34102443  0.27118784  0.86001783     0.12300
H1428       H  0.26772373  0.21349246  0.89545043     0.14300
C1429       C  0.48585434  0.46803520  0.90996384    -0.05700
C1430       C  0.51824656  0.46471272  0.90660052    -0.05700
C1431       C  0.55434926  0.49008806  0.91229638    -0.23800
C1432       C  0.55845561  0.51872084  0.92165114     0.18400
C1433       C  0.52609960  0.52249400  0.92502538     0.15600
C1434       C  0.49014173  0.49749830  0.91900004    -0.18900
C1435       C  0.52999309  0.55041816  0.93469649    -0.20700
C1436       C  0.56542652  0.57376900  0.94122550    -0.13300
C1437       C  0.59764855  0.57001277  0.93799342     0.03400
C1438       C  0.59412164  0.54286878  0.92799734    -0.25400
H1439       H  0.51558821  0.44225492  0.89963164     0.08500
H1440       H  0.57884659  0.48677431  0.90962662     0.12100
H1441       H  0.46520639  0.49998553  0.92179358     0.12000
H1442       H  0.50547796  0.55365365  0.93741993     0.11800
H1443       H  0.56759187  0.59470078  0.94884870     0.12300
H1444       H  0.61872824  0.53952571  0.92552962     0.14300
C1445       C  0.37201870  0.47702143  0.99351609    -0.05700
C1446       C  0.40490097  0.49712353  0.98498031    -0.05700
C1447       C  0.40479699  0.48508934  0.97126540    -0.23800
C1448       C  0.37193343  0.45252858  0.96592000     0.18400
C1449       C  0.33918735  0.43145057  0.97456267     0.15600
C1450       C  0.33939642  0.44388744  0.98823721    -0.18900
C1451       C  0.30659921  0.39841787  0.96935964    -0.20700
C1452       C  0.30633244  0.38642732  0.95566054    -0.13300
C1453       C  0.33836310  0.40761797  0.94687676     0.03400
C1454       C  0.37116377  0.44070986  0.95208585    -0.25400
H1455       H  0.43032956  0.52274900  0.98877756     0.08500
H1456       H  0.43025494  0.50144412  0.96480404     0.12100
H1457       H  0.31394475  0.42782414  0.99473876     0.12000
H1458       H  0.28131279  0.38188245  0.97587941     0.11800
H1459       H  0.28082000  0.36088050  0.95185705     0.12300
H1460       H  0.39624468  0.45696092  0.94542952     0.14300
C1461       C  0.07513584  0.51451724  0.75821494    -0.05700
C1462       C  0.11460596  0.54075873  0.75573842    -0.05700
C1463       C  0.13146222  0.57873732  0.76037751    -0.23800
C1464       C  0.10895534  0.59113435  0.76739909     0.18400
C1465       C  0.06962788  0.56438428  0.77043547     0.15600
C1466       C  0.05315050  0.52616981  0.76600443    -0.18900
C1467       C  0.04695998  0.57656265  0.77741442    -0.20700
C1468       C  0.06301099  0.61491352  0.78132629    -0.13300
C1469       C  0.10191370  0.64181966  0.77824836     0.03400
C1470       C  0.12484531  0.62986149  0.77125101    -0.25400
H1471       H  0.13209502  0.53223979  0.74974871     0.08500
H1472       H  0.16169107  0.59866803  0.75806619     0.12100
H1473       H  0.02260108  0.50623177  0.76781469     0.12000
H1474       H  0.01679219  0.55650518  0.77978254     0.11800
H1475       H  0.04484107  0.62362993  0.78674468     0.12300
H1476       H  0.15498919  0.65044016  0.76903107     0.14300
C1477       C  0.77051464  0.22146478  0.70052407    -0.05700
C1478       C  0.77137293  0.25170390  0.70821391    -0.05700
C1479       C  0.80349174  0.27623512  0.71625518    -0.23800
C1480       C  0.83522169  0.27065409  0.71696258     0.18400
C1481       C  0.83478663  0.24032540  0.70930130     0.15600
C1482       C  0.80261153  0.21617125  0.70097212    -0.18900
C1483       C  0.86643891  0.23459444  0.71020272    -0.20700
C1484       C  0.89841067  0.25901793  0.71841229    -0.13300
C1485       C  0.89950680  0.28980505  0.72586498     0.03400
C1486       C  0.86744772  0.29512516  0.72514263    -0.25400
H1487       H  0.74701321  0.25637184  0.70802412     0.08500
H1488       H  0.80333441  0.29935535  0.72203350     0.12100
H1489       H  0.80203479  0.19264352  0.69521635     0.12000
H1490       H  0.86667291  0.21148715  0.70444397     0.11800
H1491       H  0.92280667  0.25442006  0.71858648     0.12300
H1492       H  0.86780479  0.31876906  0.73073497     0.14300
C1493       C  0.03359918  0.35051807  0.69137652    -0.05700
C1494       C  0.05900262  0.37333495  0.68077258    -0.05700
C1495       C  0.05466693  0.35884112  0.66729304    -0.23800
C1496       C  0.02441162  0.32166386  0.66424011     0.18400
C1497       C  0.99796949  0.29890799  0.67477925     0.15600
C1498       C  0.00305956  0.31334147  0.68834185    -0.18900
C1499       C  0.96695186  0.26216948  0.67155117    -0.20700
C1500       C  0.96268918  0.24780268  0.65800752    -0.13300
C1501       C  0.98981615  0.26980796  0.64771704     0.03400
C1502       C  0.02034729  0.30677354  0.65082677    -0.25400
H1503       H  0.08251281  0.40217426  0.68296655     0.08500
H1504       H  0.07491314  0.37665528  0.65927089     0.12100
H1505       H  0.98288880  0.29598590  0.69647390     0.12000
H1506       H  0.94627348  0.24453601  0.67949664     0.11800
H1507       H  0.93905449  0.21914134  0.65566784     0.12300
H1508       H  0.04100312  0.32389218  0.64277497     0.14300
C1509       C  0.00220156  0.34255490  0.78171809    -0.05700
C1510       C  0.96991141  0.33155279  0.79039199    -0.05700
C1511       C  0.97047609  0.32159111  0.80428253    -0.23800
C1512       C  0.00369008  0.32332078  0.80979511     0.18400
C1513       C  0.03674453  0.33553162  0.80125509     0.15600
C1514       C  0.03560594  0.34455939  0.78723103    -0.18900
C1515       C  0.07030631  0.33832333  0.80687318    -0.20700
C1516       C  0.07083217  0.32813471  0.82073455    -0.13300
C1517       C  0.03767027  0.31452663  0.82918775     0.03400
C1518       C  0.00428448  0.31269139  0.82365117    -0.25400
H1519       H  0.94396575  0.32994197  0.78633630     0.08500
H1520       H  0.94494248  0.31249039  0.81070300     0.12100
H1521       H  0.06086284  0.35362825  0.78064018     0.12000
H1522       H  0.09601804  0.34796344  0.80050056     0.11800
H1523       H  0.09687695  0.32980581  0.82470368     0.12300
H1524       H  0.97859250  0.30265035  0.83007598     0.14300
C1525       C  0.23810963  0.35635751  0.89157997    -0.05700
C1526       C  0.23995762  0.38460435  0.88252627    -0.05700
C1527       C  0.20748722  0.37796098  0.87489321    -0.23800
C1528       C  0.17242259  0.34307442  0.87626396     0.18400
C1529       C  0.17008274  0.31495234  0.88561363     0.15600
C1530       C  0.20285321  0.32164964  0.89311999    -0.18900
C1531       C  0.13505110  0.28035709  0.88724302    -0.20700
C1532       C  0.10255742  0.27361394  0.87973200    -0.13300
C1533       C  0.10442698  0.30105466  0.87027534     0.03400
C1534       C  0.13965828  0.33577329  0.86850316    -0.25400
H1535       H  0.26689257  0.41143794  0.88100695     0.08500
H1536       H  0.20992043  0.39995188  0.86782604     0.12100
H1537       H  0.20098366  0.29964705  0.90006678     0.12000
H1538       H  0.13271767  0.25851365  0.89436748     0.11800
H1539       H  0.07584388  0.24657708  0.88127255     0.12300
H1540       H  0.14133778  0.35728955  0.86135242     0.14300
C1541       C  0.14972835  0.41816978  0.74107866    -0.05700
C1542       C  0.18208277  0.44983532  0.73493314    -0.05700
C1543       C  0.21926566  0.46324660  0.74014490    -0.23800
C1544       C  0.22471098  0.44567383  0.75176627     0.18400
C1545       C  0.19247984  0.41313797  0.75776116     0.15600
C1546       C  0.15534762  0.39926041  0.75226478    -0.18900
C1547       C  0.19764962  0.39590046  0.76950719    -0.20700
C1548       C  0.23409414  0.41147770  0.77556583    -0.13300
C1549       C  0.26631839  0.44446439  0.76995257     0.03400
C1550       C  0.26152032  0.46089715  0.75780124    -0.25400
H1551       H  0.17853352  0.46476349  0.72624164     0.08500
H1552       H  0.24357539  0.48809787  0.73535863     0.12100
H1553       H  0.13062074  0.37502142  0.75716788     0.12000
H1554       H  0.17331834  0.37091159  0.77422592     0.11800
H1555       H  0.23683329  0.39783754  0.78482110     0.12300
H1556       H  0.28600425  0.48627126  0.75333866     0.14300
C1557       C  0.34069115  0.45229503  0.81142110    -0.05700
C1558       C  0.30827230  0.43836450  0.82023651    -0.05700
C1559       C  0.31012224  0.42785794  0.83389152    -0.23800
C1560       C  0.34420268  0.43044694  0.83882386     0.18400
C1561       C  0.37663497  0.44329110  0.82990046     0.15600
C1562       C  0.37482421  0.45462001  0.81629726    -0.18900
C1563       C  0.41025182  0.44457456  0.83475907    -0.20700
C1564       C  0.41179056  0.43352414  0.84840728    -0.13300
C1565       C  0.38009474  0.42200018  0.85741101     0.03400
C1566       C  0.34636050  0.42041191  0.85254908    -0.25400
H1567       H  0.28177195  0.43647946  0.81666840     0.08500
H1568       H  0.28496583  0.41781362  0.84060099     0.12100
H1569       H  0.39981735  0.46494407  0.80947773     0.12000
H1570       H  0.43526586  0.45409565  0.82801877     0.11800
H1571       H  0.43795822  0.43479557  0.85203205     0.12300
H1572       H  0.32157988  0.41089108  0.85943685     0.14300
C1573       C  0.60649032  0.56565202  0.72028971    -0.05700
C1574       C  0.62061937  0.54090682  0.72349561    -0.05700
C1575       C  0.60038835  0.50218068  0.71943240    -0.23800
C1576       C  0.56538569  0.48729621  0.71220662     0.18400
C1577       C  0.55154984  0.51224883  0.70863991     0.15600
C1578       C  0.57228367  0.55117046  0.71256752    -0.18900
C1579       C  0.51669671  0.49775336  0.70143586    -0.20700
C1580       C  0.49584254  0.45905354  0.69767463    -0.13300
C1581       C  0.50910503  0.43379931  0.70111364     0.03400
C1582       C  0.54387843  0.44800760  0.70851401    -0.25400
H1583       H  0.64695206  0.55131050  0.72944540     0.08500
H1584       H  0.61170838  0.48372676  0.72219667     0.12100
H1585       H  0.56080325  0.56973001  0.71015319     0.12000
H1586       H  0.50556632  0.51637221  0.69866814     0.11800
H1587       H  0.46907737  0.44878429  0.69200525     0.12300
H1588       H  0.55454164  0.42885847  0.71107261     0.14300
C1589       C  0.55059604  0.62699646  0.76160635    -0.05700
C1590       C  0.54820577  0.61677513  0.77568082    -0.05700
C1591       C  0.51221896  0.59368528  0.78200974    -0.23800
C1592       C  0.47811084  0.57967150  0.77425950     0.18400
C1593       C  0.48004934  0.59071749  0.76022596     0.15600
C1594       C  0.51626455  0.61490592  0.75406150    -0.18900
C1595       C  0.44587503  0.57590557  0.75243160    -0.20700
C1596       C  0.41021983  0.54917492  0.75834405    -0.13300
C1597       C  0.40816207  0.53712984  0.77218353     0.03400
C1598       C  0.44228830  0.55346029  0.78016506    -0.25400
H1599       H  0.57422048  0.62578433  0.78168329     0.08500
H1600       H  0.51113945  0.58552882  0.79280930     0.12100
H1601       H  0.51775691  0.62222582  0.74313879     0.12000
H1602       H  0.44686208  0.58413077  0.74164729     0.11800
H1603       H  0.38445456  0.53731925  0.75198878     0.12300
H1604       H  0.44135691  0.54485431  0.79089952     0.14300
C1605       C  0.85187131  0.83028679  0.86854950    -0.05700
C1606       C  0.86597389  0.84422657  0.88197701    -0.05700
C1607       C  0.89088116  0.83437267  0.88855978    -0.23800
C1608       C  0.90180981  0.81016886  0.88187006     0.18400
C1609       C  0.88871239  0.79707729  0.86822201     0.15600
C1610       C  0.86437265  0.80752758  0.86163826    -0.18900
C1611       C  0.89896413  0.77253578  0.86150443    -0.20700
C1612       C  0.92081302  0.75977241  0.86842796    -0.13300
C1613       C  0.93317073  0.77155510  0.88217524     0.03400
C1614       C  0.92434125  0.79763563  0.88873038    -0.25400
H1615       H  0.85700957  0.86191595  0.88753484     0.08500
H1616       H  0.90072946  0.84481529  0.89902016     0.12100
H1617       H  0.85408730  0.79661616  0.85125086     0.12000
H1618       H  0.88914441  0.76230760  0.85101912     0.11800
H1619       H  0.92718897  0.73981688  0.86310395     0.12300
H1620       H  0.93343028  0.80679067  0.89935901     0.14300
C1621       C  0.76099194  0.80129968  0.83049224    -0.05700
C1622       C  0.72094251  0.78289402  0.82825357    -0.05700
C1623       C  0.70500925  0.76257300  0.81591929    -0.23800
C1624       C  0.72907672  0.76133268  0.80550218     0.18400
C1625       C  0.76957385  0.78050734  0.80759044     0.15600
C1626       C  0.78516242  0.79971431  0.82018182    -0.18900
C1627       C  0.79384398  0.78075308  0.79695045    -0.20700
C1628       C  0.77818483  0.76276877  0.78424594    -0.13300
C1629       C  0.73801472  0.74326928  0.78217808     0.03400
C1630       C  0.71347555  0.74204880  0.79290541    -0.25400
H1631       H  0.70190946  0.78363259  0.83616935     0.08500
H1632       H  0.67396398  0.74822937  0.81446070     0.12100
H1633       H  0.81616418  0.81418670  0.82184655     0.12000
H1634       H  0.82492920  0.79546593  0.79835510     0.11800
H1635       H  0.79740885  0.76388975  0.77602529     0.12300
H1636       H  0.68247646  0.72743070  0.79122216     0.14300
C1637       C  0.54573137  0.94753401  0.77408929    -0.05700
C1638       C  0.52719956  0.92961487  0.76157362    -0.05700
C1639       C  0.49890923  0.93622405  0.75589457    -0.23800
C1640       C  0.48878941  0.96109001  0.76257104     0.18400
C1641       C  0.50702674  0.97903854  0.77518188     0.15600
C1642       C  0.53511424  0.97208976  0.78084955    -0.18900
C1643       C  0.49740013  0.00422847  0.78182480    -0.20700
C1644       C  0.47086520  0.01263322  0.77580187    -0.13300
C1645       C  0.45305073  0.99573101  0.76307555     0.03400
C1646       C  0.46161779  0.96919839  0.75667497    -0.25400
H1647       H  0.53447694  0.91040560  0.75618127     0.08500
H1648       H  0.48521644  0.92217271  0.74620289     0.12100
H1649       H  0.54899521  0.98629599  0.79050331     0.12000
H1650       H  0.51109874  0.01817239  0.79153187     0.11800
H1651       H  0.46502366  0.03316706  0.78095912     0.12300
H1652       H  0.44847487  0.95611157  0.74679758     0.14300
C1653       C  0.63263546  0.89200224  0.77276584    -0.05700
C1654       C  0.66468163  0.89139572  0.77843375    -0.05700
C1655       C  0.67883649  0.86921863  0.77237241    -0.23800
C1656       C  0.66111580  0.84670416  0.76053831     0.18400
C1657       C  0.62935768  0.84743231  0.75454566     0.15600
C1658       C  0.61557723  0.87034969  0.76058606    -0.18900
C1659       C  0.61124150  0.82432491  0.74284729    -0.15300
C1660       C  0.62353331  0.79982442  0.73745211    -0.13300
C1661       C  0.65470947  0.79831411  0.74344682     0.03400
C1662       C  0.67388347  0.82260924  0.75486995    -0.25400
H1663       H  0.67879696  0.90790391  0.78769698     0.08500
H1664       H  0.70324977  0.86912845  0.77712032     0.12100
H1665       H  0.59089240  0.87035987  0.75604547     0.12000
H1666       H  0.58688834  0.82445477  0.73806882     0.11800
H1667       H  0.60820347  0.78157361  0.72866271     0.12300
H1668       H  0.69766573  0.82156469  0.75974026     0.14300
C1669       C  0.72472702  0.93515636  0.59524547    -0.05700
C1670       C  0.71138366  0.91944839  0.60856743    -0.05700
C1671       C  0.72565707  0.89828537  0.61510355    -0.23800
C1672       C  0.75338870  0.89224775  0.60841677     0.18400
C1673       C  0.76777213  0.90873700  0.59520705     0.15600
C1674       C  0.75361485  0.93027762  0.58876711    -0.18900
C1675       C  0.79536362  0.90257886  0.58848423    -0.20700
C1676       C  0.80804821  0.87963262  0.59465504    -0.13300
C1677       C  0.79347266  0.86247081  0.60769647     0.03400
C1678       C  0.76638102  0.86936551  0.61458945    -0.25400
H1679       H  0.68922851  0.92275851  0.61383234     0.08500
H1680       H  0.71440337  0.88596704  0.62526397     0.12100
H1681       H  0.76424107  0.94214446  0.57850078     0.12000
H1682       H  0.80674258  0.91506267  0.57835403     0.11800
H1683       H  0.82899988  0.87501171  0.58910794     0.12300
H1684       H  0.75487923  0.85648667  0.62466420     0.14300
C1685       C  0.78523410  0.77848466  0.64598509    -0.05700
C1686       C  0.80630615  0.76909253  0.65518224    -0.05700
C1687       C  0.79308936  0.75738270  0.66882673    -0.23800
C1688       C  0.75825897  0.75429630  0.67343461     0.18400
C1689       C  0.73595401  0.76193317  0.66405993     0.15600
C1690       C  0.74971509  0.77425094  0.65047724    -0.18900
C1691       C  0.70049026  0.75764091  0.66848726    -0.20700
C1692       C  0.68746307  0.74640846  0.68214902    -0.13300
C1693       C  0.71009921  0.74022119  0.69168552     0.03400
C1694       C  0.74547527  0.74407829  0.68726537    -0.25400
H1695       H  0.83372434  0.77217048  0.65199039     0.08500
H1696       H  0.81036362  0.75124417  0.67582958     0.12100
H1697       H  0.73291844  0.78095323  0.64343534     0.12000
H1698       H  0.68292579  0.76315567  0.66140444     0.11800
H1699       H  0.66016484  0.74355107  0.68539243     0.12300
H1700       H  0.76281716  0.73884489  0.69456931     0.14300
C1701       C  0.91172486  0.54748811  0.69983989    -0.05700
C1702       C  0.89590307  0.53052799  0.71278619    -0.05700
C1703       C  0.90635756  0.50575257  0.71902306    -0.23800
C1704       C  0.93292863  0.49767130  0.71244502     0.18400
C1705       C  0.94881499  0.51444739  0.69941618     0.15600
C1706       C  0.93811217  0.53902226  0.69322534    -0.18900
C1707       C  0.97562098  0.50684865  0.69283642    -0.20700
C1708       C  0.98744306  0.48356703  0.69927397    -0.13300
C1709       C  0.97248182  0.46718226  0.71237406     0.03400
C1710       C  0.94459424  0.47386676  0.71879111    -0.25400
H1711       H  0.87544602  0.53635895  0.71808824     0.08500
H1712       H  0.89389034  0.49314823  0.72903637     0.12100
H1713       H  0.95077548  0.55179978  0.68324702     0.12000
H1714       H  0.98801707  0.51951114  0.68281912     0.11800
H1715       H  0.00896352  0.47905953  0.69410435     0.12300
H1716       H  0.93298450  0.46173531  0.72894523     0.14300
C1717       C  0.84511513  0.62382436  0.69913494    -0.05700
C1718       C  0.83327565  0.64523606  0.69115053    -0.05700
C1719       C  0.81322356  0.66152606  0.69723174    -0.23800
C1720       C  0.80426870  0.65663592  0.71144002     0.18400
C1721       C  0.81490972  0.63438894  0.71960141     0.15600
C1722       C  0.83537853  0.61812429  0.71340241    -0.18900
C1723       C  0.80475423  0.62884305  0.73378608    -0.20700
C1724       C  0.78384304  0.64473520  0.73971967    -0.13300
C1725       C  0.77365698  0.66722731  0.73164856     0.03400
C1726       C  0.78434049  0.67330033  0.71753612    -0.25400
H1727       H  0.83987217  0.64989584  0.68013177     0.08500
H1728       H  0.80485377  0.67812580  0.69080743     0.12100
H1729       H  0.84410192  0.60159364  0.71969650     0.12000
H1730       H  0.81247037  0.61178266  0.74022890     0.11800
H1731       H  0.77550490  0.63936611  0.75059396     0.12300
H1732       H  0.77581512  0.68984600  0.71113811     0.14300
C1733       C  0.82172659  0.14634422  0.88207602    -0.05700
C1734       C  0.82210499  0.16327397  0.86925958    -0.05700
C1735       C  0.85712088  0.18809440  0.86255647    -0.23800
C1736       C  0.89237741  0.19671274  0.86861292     0.18400
C1737       C  0.89220791  0.17916029  0.88132442     0.15600
C1738       C  0.85703523  0.15385745  0.88786247    -0.18900
C1739       C  0.92726140  0.18795288  0.88751990    -0.20700
C1740       C  0.96228376  0.21420681  0.88126689    -0.13300
C1741       C  0.96302319  0.23210040  0.86863438     0.03400
C1742       C  0.92777799  0.22299099  0.86231420    -0.25400
H1743       H  0.79537617  0.15809173  0.86456701     0.08500
H1744       H  0.85664671  0.20120699  0.85279797     0.12100
H1745       H  0.85736017  0.14127912  0.89777287     0.12000
H1746       H  0.92761816  0.17478351  0.89728251     0.11800
H1747       H  0.98884969  0.22043558  0.88638142     0.12300
H1748       H  0.92781058  0.23650961  0.85258578     0.14300
C1749       C  0.77123651  0.18989525  0.93018770    -0.05700
C1750       C  0.78663816  0.19120129  0.94342102    -0.05700
C1751       C  0.81014647  0.22630581  0.95003748    -0.23800
C1752       C  0.81899153  0.26079088  0.94348962     0.18400
C1753       C  0.80267970  0.25997263  0.93041981     0.15600
C1754       C  0.77846253  0.22445471  0.92391393    -0.18900
C1755       C  0.81213989  0.29474751  0.92387018    -0.20700
C1756       C  0.83843757  0.32998996  0.93004348    -0.13300
C1757       C  0.85543594  0.33097438  0.94291059     0.03400
C1758       C  0.84488086  0.29606867  0.94965445    -0.25400
H1759       H  0.78150094  0.16508678  0.94850321     0.08500
H1760       H  0.82237565  0.22652291  0.96009169     0.12100
H1761       H  0.76701312  0.22391701  0.91366807     0.12000
H1762       H  0.79985300  0.29468498  0.91384852     0.11800
H1763       H  0.84582837  0.35639518  0.92465935     0.12300
H1764       H  0.85753614  0.29611617  0.95959911     0.14300
C1765       C  0.73498227  0.97086005  0.89874204    -0.05700
C1766       C  0.76878029  0.97323473  0.90405058    -0.05700
C1767       C  0.78327579  0.95101260  0.89836278    -0.23800
C1768       C  0.76458490  0.92636213  0.88710087     0.18400
C1769       C  0.73042331  0.92352508  0.88173481     0.15600
C1770       C  0.71556029  0.94539218  0.88769078    -0.18900
C1771       C  0.71218150  0.89951494  0.87029534    -0.20700
C1772       C  0.72768662  0.87869839  0.86417636    -0.13300
C1773       C  0.76164924  0.88117264  0.86941154     0.03400
C1774       C  0.77983850  0.90502178  0.88097883    -0.25400
H1775       H  0.78429970  0.99266595  0.91255688     0.08500
H1776       H  0.80949257  0.95363567  0.90261675     0.12100
H1777       H  0.68981809  0.94373602  0.88337138     0.12000
H1778       H  0.68609523  0.89708592  0.86599039     0.11800
H1779       H  0.71289934  0.86057355  0.85529885     0.12300
H1780       H  0.80613993  0.90749128  0.88508815     0.14300
C1781       C  0.64824431  0.02844050  0.86138812    -0.05700
C1782       C  0.63903870  0.04928713  0.85205866    -0.05700
C1783       C  0.63070514  0.03774605  0.83812904    -0.23800
C1784       C  0.63238788  0.00571367  0.83321934     0.18400
C1785       C  0.64258262  0.98512533  0.84243970     0.15600
C1786       C  0.64984125  0.99624467  0.85649599    -0.18900
C1787       C  0.64555392  0.95390609  0.83741981    -0.20700
C1788       C  0.63788325  0.94276488  0.82343210    -0.13300
C1789       C  0.62644576  0.96220279  0.81428178     0.03400
C1790       C  0.62400318  0.99388566  0.81926068    -0.25400
H1791       H  0.63787775  0.07427761  0.85559030     0.08500
H1792       H  0.62317944  0.05400965  0.83117742     0.12100
H1793       H  0.65766266  0.98041121  0.86356275     0.12000
H1794       H  0.65362843  0.93798505  0.84432772     0.11800
H1795       H  0.63977917  0.91820211  0.81986937     0.12300
H1796       H  0.61555713  0.00935158  0.81226628     0.14300
C1797       C  0.45527225  0.21114350  0.94300662    -0.05700
C1798       C  0.47825747  0.23434299  0.93193093    -0.05700
C1799       C  0.46999612  0.26051974  0.92558390    -0.23800
C1800       C  0.43848240  0.26390023  0.93014318     0.18400
C1801       C  0.41588280  0.24159530  0.94151870     0.15600
C1802       C  0.42451145  0.21559889  0.94790877    -0.18900
C1803       C  0.38434133  0.24487719  0.94608260    -0.20700
C1804       C  0.37439811  0.26900767  0.93913488    -0.13300
C1805       C  0.39583125  0.29042398  0.92748969     0.03400
C1806       C  0.42846913  0.28828986  0.92325316    -0.25400
H1807       H  0.50232275  0.23186887  0.92800049     0.08500
H1808       H  0.48779372  0.27755663  0.91692167     0.12100
H1809       H  0.40654569  0.19814488  0.95647350     0.12000
H1810       H  0.36675973  0.22805843  0.95482072     0.11800
H1811       H  0.34911007  0.26992376  0.94263654     0.12300
H1812       H  0.44538398  0.30462321  0.91431941     0.14300
C1813       C  0.59541414  0.07892222  0.91822975    -0.05700
C1814       C  0.56439640  0.04914220  0.92568181    -0.05700
C1815       C  0.53920823  0.05639974  0.93363224    -0.23800
C1816       C  0.54446113  0.09359506  0.93430679     0.18400
C1817       C  0.57544307  0.12365253  0.92683768     0.15600
C1818       C  0.60055652  0.11618333  0.91890637    -0.18900
C1819       C  0.58084584  0.16081590  0.92737078    -0.20700
C1820       C  0.55520145  0.16802053  0.93489325    -0.13300
C1821       C  0.52384832  0.13840683  0.94223485     0.03400
C1822       C  0.51905737  0.10123424  0.94211466    -0.25400
H1823       H  0.55995678  0.02029771  0.92557377     0.08500
H1824       H  0.51569178  0.03292459  0.93928891     0.12100
H1825       H  0.62444330  0.13966447  0.91337418     0.12000
H1826       H  0.60458281  0.18425190  0.92177351     0.11800
H1827       H  0.55974487  0.19691270  0.93486196     0.12300
H1828       H  0.49486382  0.07806691  0.94763960     0.14300
C1829       C  0.57438941  0.88628380  0.03468688    -0.05700
C1830       C  0.56114091  0.87153702  0.04810188    -0.05700
C1831       C  0.57156437  0.84674576  0.05420231    -0.23800
C1832       C  0.59567948  0.83650031  0.04704768     0.18400
C1833       C  0.60844295  0.85029430  0.03342720     0.15600
C1834       C  0.59738329  0.87473415  0.02727972    -0.18900
C1835       C  0.63326006  0.84060381  0.02641480    -0.20700
C1836       C  0.64685223  0.81903349  0.03312652    -0.13300
C1837       C  0.63503841  0.80605756  0.04680924     0.03400
C1838       C  0.60849929  0.81398304  0.05353407    -0.25400
H1839       H  0.54330090  0.87972634  0.05402355     0.08500
H1840       H  0.56155756  0.83636671  0.06466525     0.12100
H1841       H  0.60773268  0.88564458  0.01689186     0.12000
H1842       H  0.64320691  0.85082216  0.01593391     0.11800
H1843       H  0.66715106  0.81313024  0.02773474     0.12300
H1844       H  0.59944632  0.80445812  0.06414844     0.14300
C1845       C  0.66817040  0.01297295  0.95162120    -0.05700
C1846       C  0.69092299  0.00765588  0.96138529    -0.05700
C1847       C  0.67732985  0.99627036  0.97498800    -0.23800
C1848       C  0.64121177  0.99095986  0.97907449     0.18400
C1849       C  0.61893481  0.99790535  0.96944856     0.15600
C1850       C  0.63231468  0.00833677  0.95575318    -0.18900
C1851       C  0.58351729  0.99403225  0.97365329    -0.20700
C1852       C  0.56972715  0.98233431  0.98719615    -0.13300
C1853       C  0.59078030  0.97363443  0.99663044     0.03400
C1854       C  0.62675763  0.97842023  0.99255597    -0.25400
H1855       H  0.71876685  0.01143416  0.95839426     0.08500
H1856       H  0.69494748  0.99145702  0.98228462     0.12100
H1857       H  0.61500810  0.01325053  0.94832123     0.12000
H1858       H  0.56630004  0.99963223  0.96642698     0.11800
H1859       H  0.54194040  0.97876375  0.99014781     0.12300
H1860       H  0.64337958  0.97221260  0.99986423     0.14300
C1861       C  0.82938270  0.07671818  0.36270013    -0.05700
C1862       C  0.85615929  0.08060420  0.37288505    -0.05700
C1863       C  0.88000768  0.11613946  0.37927437    -0.23800
C1864       C  0.87720842  0.14834150  0.37570667     0.18400
C1865       C  0.85077170  0.14492821  0.36535495     0.15600
C1866       C  0.82725551  0.10926154  0.35885406    -0.18900
C1867       C  0.84775755  0.17707030  0.36188174    -0.20700
C1868       C  0.87011218  0.21208718  0.36882423    -0.13300
C1869       C  0.89592668  0.21562428  0.37936369     0.03400
C1870       C  0.89971309  0.18362551  0.38257140    -0.25400
H1871       H  0.85861361  0.05610590  0.37595648     0.08500
H1872       H  0.90022128  0.11828819  0.38716302     0.12100
H1873       H  0.80662839  0.10668812  0.35105810     0.12000
H1874       H  0.82759530  0.17494816  0.35397578     0.11800
H1875       H  0.86638720  0.23611409  0.36619275     0.12300
H1876       H  0.91950165  0.18584688  0.39065496     0.14300
C1877       C  0.71349790  0.18477237  0.44500444    -0.05700
C1878       C  0.71407931  0.20392075  0.43274510    -0.05700
C1879       C  0.74921058  0.22945035  0.42625845    -0.23800
C1880       C  0.78429700  0.23588293  0.43183346     0.18400
C1881       C  0.78410965  0.21764085  0.44435660     0.15600
C1882       C  0.74886592  0.19260076  0.45091450    -0.18900
C1883       C  0.81906879  0.22362750  0.44986405    -0.20700
C1884       C  0.85379114  0.24600928  0.44266427    -0.13300
C1885       C  0.85421605  0.26316839  0.42991443     0.03400
C1886       C  0.81937131  0.25893504  0.42479760    -0.25400
H1887       H  0.68736877  0.19879688  0.42805541     0.08500
H1888       H  0.74886642  0.24337499  0.41668670     0.12100
H1889       H  0.74907571  0.17824375  0.46039484     0.12000
H1890       H  0.81940302  0.20996886  0.45950698     0.11800
H1891       H  0.88014504  0.24892940  0.44688916     0.12300
H1892       H  0.81914575  0.27198961  0.41498810     0.14300
C1893       C  0.06681545  0.47491484  0.27046665    -0.05700
C1894       C  0.02654885  0.45903471  0.27020563    -0.05700
C1895       C  0.01068313  0.48143746  0.26642848    -0.23800
C1896       C  0.03497113  0.52030471  0.26313368     0.18400
C1897       C  0.07563588  0.53642089  0.26315160     0.15600
C1898       C  0.09136072  0.51340472  0.26668282    -0.18900
C1899       C  0.09976736  0.57542183  0.25991824    -0.20700
C1900       C  0.08373877  0.59797521  0.25636772    -0.13300
C1901       C  0.04336571  0.58198705  0.25618620     0.03400
C1902       C  0.01917784  0.54324147  0.25979765    -0.25400
H1903       H  0.00740258  0.42950486  0.27338658     0.08500
H1904       H  0.97949495  0.46865150  0.26644344     0.12100
H1905       H  0.12247939  0.52586023  0.26726038     0.12000
H1906       H  0.13096290  0.58833054  0.25995659     0.11800
H1907       H  0.10289403  0.62778839  0.25353690     0.12300
H1908       H  0.98798740  0.53048783  0.25947330     0.14300
C1909       C  0.00758041  0.38837653  0.35967491    -0.05700
C1910       C  0.98671613  0.39880630  0.35083035    -0.05700
C1911       C  0.99790078  0.40787566  0.33692587    -0.23800
C1912       C  0.02957613  0.40581352  0.33165776     0.18400
C1913       C  0.05041700  0.39489044  0.34047307     0.15600
C1914       C  0.03955936  0.38669447  0.35445718    -0.18900
C1915       C  0.08155606  0.39203823  0.33513251    -0.20700
C1916       C  0.09216096  0.40018756  0.32114282    -0.13300
C1917       C  0.07200157  0.41165814  0.31234805     0.03400
C1918       C  0.04062933  0.41431532  0.31770404    -0.25400
H1919       H  0.96203748  0.40028718  0.35471385     0.08500
H1920       H  0.98163008  0.41618319  0.33027434     0.12100
H1921       H  0.05546695  0.37814710  0.36121748     0.12000
H1922       H  0.09769844  0.38354072  0.34177199     0.11800
H1923       H  0.11651476  0.39811545  0.31727511     0.12300
H1924       H  0.02461999  0.42288275  0.31101800     0.14300
C1925       C  0.27138863  0.10547909  0.37999432    -0.05700
C1926       C  0.23108700  0.08918268  0.38151630    -0.05700
C1927       C  0.21298953  0.10953045  0.37747613    -0.23800
C1928       C  0.23503049  0.14683857  0.37210444     0.18400
C1929       C  0.27530374  0.16257873  0.36997020     0.15600
C1930       C  0.29302643  0.14156586  0.37367514    -0.18900
C1931       C  0.29765753  0.19982790  0.36471976    -0.20700
C1932       C  0.28044764  0.22142476  0.36163233    -0.13300
C1933       C  0.24058206  0.20640388  0.36378465     0.03400
C1934       C  0.21783258  0.16899807  0.36906051    -0.25400
H1935       H  0.21383788  0.06137299  0.38643118     0.08500
H1936       H  0.18208852  0.09674365  0.37908810     0.12100
H1937       H  0.32416766  0.15464198  0.37266523     0.12000
H1938       H  0.32852518  0.21238124  0.36307038     0.11800
H1939       H  0.29847449  0.25017239  0.35751331     0.12300
H1940       H  0.18697562  0.15705386  0.37053164     0.14300
C1941       C  0.07633242  0.31493598  0.39310287    -0.05700
C1942       C  0.10366692  0.34374404  0.38425337    -0.05700
C1943       C  0.12985317  0.33781031  0.37655339    -0.23800
C1944       C  0.12966588  0.30308658  0.37764727     0.18400
C1945       C  0.10319469  0.27419078  0.38678367     0.15600
C1946       C  0.07633850  0.28010589  0.39436438    -0.18900
C1947       C  0.10397133  0.23986684  0.38805259    -0.20700
C1948       C  0.13037308  0.23413288  0.38023409    -0.13300
C1949       C  0.15599217  0.26231761  0.37082685     0.03400
C1950       C  0.15547442  0.29683335  0.36967034    -0.25400
H1951       H  0.10408922  0.37064341  0.38293776     0.08500
H1952       H  0.15004326  0.36030384  0.36963275     0.12100
H1953       H  0.05547961  0.25769824  0.40116204     0.12000
H1954       H  0.08413017  0.21743941  0.39506195     0.11800
H1955       H  0.13030632  0.20737060  0.38137163     0.12300
H1956       H  0.17549652  0.31913322  0.36264524     0.14300
C1957       C  0.42687749  0.51264041  0.26383548    -0.05700
C1958       C  0.43892825  0.51300645  0.27759155    -0.05700
C1959       C  0.46211849  0.54773241  0.28452380    -0.23800
C1960       C  0.47402027  0.58271638  0.27777172     0.18400
C1961       C  0.46027475  0.58274066  0.26426627     0.15600
C1962       C  0.43628410  0.54769064  0.25746272    -0.18900
C1963       C  0.47247795  0.61781521  0.25750391    -0.20700
C1964       C  0.49959108  0.65243896  0.26377049    -0.13300
C1965       C  0.51471777  0.65259911  0.27696197     0.03400
C1966       C  0.50081125  0.61755590  0.28406436    -0.25400
H1967       H  0.43177901  0.48644797  0.28281691     0.08500
H1968       H  0.47210100  0.54721888  0.29493629     0.12100
H1969       H  0.42715724  0.54788343  0.24687785     0.12000
H1970       H  0.46203661  0.61840119  0.24718215     0.11800
H1971       H  0.50935637  0.67900004  0.25812421     0.12300
H1972       H  0.51181562  0.61711961  0.29430010     0.14300
C1973       C  0.48439759  0.46489647  0.21677137    -0.05700
C1974       C  0.48381287  0.47058039  0.20235585    -0.05700
C1975       C  0.51816748  0.49327107  0.19499068    -0.23800
C1976       C  0.55371824  0.51114222  0.20194203     0.18400
C1977       C  0.55475660  0.50443034  0.21632954     0.15600
C1978       C  0.52016898  0.48099617  0.22361672    -0.18900
C1979       C  0.59024865  0.52239045  0.22329886    -0.20700
C1980       C  0.62427175  0.54754431  0.21618732    -0.13300
C1981       C  0.62353187  0.55530897  0.20195388     0.03400
C1982       C  0.58807088  0.53644617  0.19484106    -0.25400
H1983       H  0.45662295  0.45820706  0.19681734     0.08500
H1984       H  0.51680799  0.49779262  0.18394559     0.12100
H1985       H  0.52099611  0.47698289  0.23473822     0.12000
H1986       H  0.59162715  0.51754597  0.23431506     0.11800
H1987       H  0.65113656  0.56148221  0.22194758     0.12300
H1988       H  0.58706620  0.54179876  0.18384525     0.14300
C1989       C  0.14770468  0.41435345  0.27132378    -0.05700
C1990       C  0.14842597  0.38165487  0.27592560    -0.05700
C1991       C  0.17369136  0.37132427  0.26991085    -0.23800
C1992       C  0.19924231  0.39389436  0.25933448     0.18400
C1993       C  0.19886291  0.42688838  0.25460209     0.15600
C1994       C  0.17267192  0.43660409  0.26048337    -0.18900
C1995       C  0.22538607  0.45010258  0.24433190    -0.20700
C1996       C  0.25264573  0.44127214  0.23907678    -0.13300
C1997       C  0.25328874  0.40860146  0.24376222     0.03400
C1998       C  0.22595131  0.38462418  0.25372654    -0.25400
H1999       H  0.12925452  0.36386659  0.28418457     0.08500
H2000       H  0.17368021  0.34602876  0.27369556     0.12100
H2001       H  0.17255318  0.46204074  0.25693572     0.12000
H2002       H  0.22565370  0.47556894  0.24060435     0.11800
H2003       H  0.27352658  0.46023109  0.23143152     0.12300
H2004       H  0.22661888  0.35973219  0.25759681     0.14300
C2005       C  0.31918478  0.33853454  0.28467885    -0.05700
C2006       C  0.34207105  0.33285354  0.29428141    -0.05700
C2007       C  0.32898054  0.32132633  0.30786120    -0.23800
C2008       C  0.29294888  0.31570678  0.31211346     0.18400
C2009       C  0.27013069  0.32257054  0.30273126     0.15600
C2010       C  0.28329208  0.33369945  0.28900075    -0.18900
C2011       C  0.23428984  0.31739186  0.30720723    -0.20700
C2012       C  0.22036438  0.30361129  0.32063413    -0.13300
C2013       C  0.24207316  0.29472978  0.32968677     0.03400
C2014       C  0.27890165  0.30210917  0.32548202    -0.25400
H2015       H  0.36980095  0.33651036  0.29118725     0.08500
H2016       H  0.34680841  0.31628441  0.31498264     0.12100
H2017       H  0.26570706  0.33859136  0.28170135     0.12000
H2018       H  0.21657564  0.32290997  0.30020097     0.11800
H2019       H  0.19193083  0.29814351  0.32367964     0.12300
H2020       H  0.29620124  0.29594977  0.33248291     0.14300
C2021       C  0.24888878  0.89371789  0.04681170    -0.05700
C2022       C  0.24127339  0.89240501  0.03250799    -0.05700
C2023       C  0.22214552  0.85709801  0.02548170    -0.23800
C2024       C  0.20982673  0.82255176  0.03269968     0.18400
C2025       C  0.21829418  0.82360642  0.04697701     0.15600
C2026       C  0.23807404  0.85908220  0.05387806    -0.18900
C2027       C  0.20563090  0.78909817  0.05424621    -0.20700
C2028       C  0.18319138  0.75368875  0.04756729    -0.13300
C2029       C  0.17329244  0.75224668  0.03348683     0.03400
C2030       C  0.18784244  0.78695224  0.02601830    -0.25400
H2031       H  0.24955922  0.91858251  0.02680363     0.08500
H2032       H  0.21601196  0.85673995  0.01449193     0.12100
H2033       H  0.24370012  0.85946608  0.06492131     0.12000
H2034       H  0.21207446  0.78949109  0.06520738     0.11800
H2035       H  0.17258737  0.72751875  0.05354901     0.12300
H2036       H  0.18085910  0.78643930  0.01510533     0.14300
C2037       C  0.06657208  0.86411228  0.11731326    -0.05700
C2038       C  0.09812155  0.87420443  0.12624381    -0.05700
C2039       C  0.13602125  0.89904601  0.12185161    -0.23800
C2040       C  0.14333991  0.91458910  0.10844703     0.18400
C2041       C  0.11195436  0.90696461  0.09970105     0.15600
C2042       C  0.07370061  0.88187117  0.10419667    -0.18900
C2043       C  0.11950469  0.92313462  0.08635936    -0.20700
C2044       C  0.15757906  0.94455697  0.08143534    -0.13300
C2045       C  0.18890058  0.95018314  0.08973731     0.03400
C2046       C  0.18150804  0.93613391  0.10344419    -0.25400
H2047       H  0.09378627  0.86167181  0.13651310     0.08500
H2048       H  0.15966629  0.90498916  0.12877822     0.12100
H2049       H  0.04979193  0.87483924  0.09725068     0.12000
H2050       H  0.09593153  0.91803838  0.07953739     0.11800
H2051       H  0.16230752  0.95519607  0.07085284     0.12300
H2052       H  0.20529606  0.94055462  0.11003162     0.14300
C2053       C  0.51306656  0.96628322  0.03778079    -0.05700
C2054       C  0.51702380  0.00210017  0.03456079    -0.05700
C2055       C  0.49495859  0.01497333  0.04150307    -0.23800
C2056       C  0.46795685  0.99202613  0.05166977     0.18400
C2057       C  0.46356196  0.95595779  0.05508534     0.15600
C2058       C  0.48658082  0.94350984  0.04825507    -0.18900
C2059       C  0.43549684  0.93266963  0.06498731    -0.20700
C2060       C  0.41130863  0.94454853  0.07110148    -0.13300
C2061       C  0.41544385  0.98034217  0.06768462     0.03400
C2062       C  0.44446293  0.00418130  0.05813161    -0.25400
H2063       H  0.53738691  0.02038239  0.02666074     0.08500
H2064       H  0.49857186  0.04265920  0.03874435     0.12100
H2065       H  0.48308967  0.91574441  0.05080001     0.12000
H2066       H  0.43157505  0.90486194  0.06772958     0.11800
H2067       H  0.38906842  0.92556256  0.07836447     0.12300
H2068       H  0.44761859  0.03157480  0.05518512     0.14300
C2069       C  0.37713223  0.06649929  0.02742321    -0.05700
C2070       C  0.41521217  0.07335100  0.02620522    -0.05700
C2071       C  0.43510239  0.08426413  0.01352163    -0.23800
C2072       C  0.41761865  0.08911257  0.00175877     0.18400
C2073       C  0.37908566  0.08157336  0.00272634     0.15600
C2074       C  0.35886490  0.06976345  0.01549150    -0.18900
C2075       C  0.36197949  0.08738498  0.99103158    -0.20700
C2076       C  0.38338374  0.10229880  0.97877299    -0.13300
C2077       C  0.42196610  0.11074550  0.97781436     0.03400
C2078       C  0.43857687  0.10293699  0.98922678    -0.25400
H2079       H  0.42987849  0.07042728  0.03513686     0.08500
H2080       H  0.46451734  0.08976926  0.01300611     0.12100
H2081       H  0.32955516  0.06449303  0.01624614     0.12000
H2082       H  0.33251565  0.08173577  0.99151708     0.11800
H2083       H  0.37000999  0.10808529  0.97007956     0.12300
H2084       H  0.46847537  0.10987366  0.98864210     0.14300
C2085       C  0.56071496  0.07247523  0.21642353    -0.05700
C2086       C  0.54558617  0.05848878  0.20309454    -0.05700
C2087       C  0.52376204  0.07142327  0.19624283    -0.23800
C2088       C  0.51633570  0.09839795  0.20261600     0.18400
C2089       C  0.53213938  0.11353630  0.21583476     0.15600
C2090       C  0.55457192  0.10076268  0.22261144    -0.18900
C2091       C  0.52425294  0.14032113  0.22219210    -0.20700
C2092       C  0.50013253  0.15121181  0.21566753    -0.13300
C2093       C  0.48370594  0.13570577  0.20262461     0.03400
C2094       C  0.49255532  0.10970724  0.19609137    -0.25400
H2095       H  0.55001099  0.03690909  0.19802506     0.08500
H2096       H  0.51196230  0.05965920  0.18607912     0.12100
H2097       H  0.56593331  0.11174304  0.23289403     0.12000
H2098       H  0.53619115  0.15234456  0.23231207     0.11800
H2099       H  0.49407811  0.17149742  0.22090319     0.12300
H2100       H  0.48026720  0.09746422  0.18602471     0.14300
C2101       C  0.36224519  0.04673580  0.11806908    -0.05700
C2102       C  0.36378800  0.02274685  0.12825868    -0.05700
C2103       C  0.37473452  0.03622229  0.14185654    -0.23800
C2104       C  0.38356060  0.07358464  0.14546804     0.18400
C2105       C  0.38035265  0.09725067  0.13539649     0.15600
C2106       C  0.37009076  0.08380178  0.12174362    -0.18900
C2107       C  0.38788382  0.13412401  0.13911278    -0.20700
C2108       C  0.39927524  0.14776140  0.15265825    -0.13300
C2109       C  0.40404034  0.12500818  0.16254087     0.03400
C2110       C  0.39590103  0.08784561  0.15893223    -0.25400
H2111       H  0.35768052  0.99403835  0.12559940     0.08500
H2112       H  0.37667748  0.01760714  0.14950129     0.12100
H2113       H  0.36824602  0.10219435  0.11395525     0.12000
H2114       H  0.38524124  0.15246999  0.13153090     0.11800
H2115       H  0.40543098  0.17648954  0.15531707     0.12300
H2116       H  0.39904227  0.07003452  0.16662882     0.14300
C2117       C  0.40487201  0.19860184  0.20350454    -0.05700
C2118       C  0.37211501  0.19890033  0.19847365    -0.05700
C2119       C  0.35847951  0.22063513  0.20512130    -0.23800
C2120       C  0.37764233  0.24289580  0.21682034     0.18400
C2121       C  0.41054430  0.24280860  0.22201535     0.15600
C2122       C  0.42367424  0.22030592  0.21542717    -0.18900
C2123       C  0.43037206  0.26607884  0.23347170    -0.20700
C2124       C  0.41850598  0.29021311  0.23940667    -0.13300
C2125       C  0.38605893  0.29067692  0.23420672     0.03400
C2126       C  0.36521006  0.26625835  0.22310673    -0.25400
H2127       H  0.35686884  0.18223569  0.18937343     0.08500
H2128       H  0.33331953  0.22051075  0.20097482     0.12100
H2129       H  0.44905681  0.22049290  0.21937356     0.12000
H2130       H  0.45567264  0.26643296  0.23758160     0.11800
H2131       H  0.43500942  0.30895692  0.24793851     0.12300
H2132       H  0.34055334  0.26698236  0.21887288     0.14300
C2133       C  0.19769759  0.27903641  0.11298854    -0.05700
C2134       C  0.20482437  0.31465428  0.11836779    -0.05700
C2135       C  0.18158035  0.32976015  0.11471391    -0.23800
C2136       C  0.15048178  0.30951599  0.10564618     0.18400
C2137       C  0.14246076  0.27336180  0.10033533     0.15600
C2138       C  0.16625633  0.25838861  0.10397306    -0.18900
C2139       C  0.11114446  0.25317379  0.09130530    -0.20700
C2140       C  0.08924454  0.26944261  0.08706605    -0.13300
C2141       C  0.09806023  0.30616775  0.09182365     0.03400
C2142       C  0.12811186  0.32549801  0.10146888    -0.25400
H2143       H  0.22883321  0.33126144  0.12533824     0.08500
H2144       H  0.18818554  0.35748352  0.11888863     0.12100
H2145       H  0.16019325  0.23074196  0.09988759     0.12000
H2146       H  0.10425022  0.22529543  0.08720873     0.11800
H2147       H  0.06618651  0.25375937  0.07964996     0.12300
H2148       H  0.13544399  0.35386027  0.10518370     0.14300
C2149       C  0.25717390  0.19830987  0.10493778    -0.05700
C2150       C  0.22631864  0.16946865  0.09720318    -0.05700
C2151       C  0.23153694  0.14367882  0.08887362    -0.23800
C2152       C  0.26799741  0.14674749  0.08783936     0.18400
C2153       C  0.29948073  0.17648467  0.09521777     0.15600
C2154       C  0.29379468  0.20166307  0.10384170    -0.18900
C2155       C  0.33613131  0.18037487  0.09395518    -0.20700
C2156       C  0.34138347  0.15431330  0.08592011    -0.13300
C2157       C  0.31009684  0.12336277  0.07897616     0.03400
C2158       C  0.27341153  0.12026744  0.07980176    -0.25400
H2159       H  0.19788249  0.16642026  0.09780732     0.08500
H2160       H  0.20701213  0.12127768  0.08326652     0.12100
H2161       H  0.31798279  0.22420253  0.10955789     0.12000
H2162       H  0.36070562  0.20320241  0.09941052     0.11800
H2163       H  0.37000119  0.15776102  0.08557008     0.12300
H2164       H  0.24889595  0.09666710  0.07459562     0.14300
C2165       C  0.31689725  0.35206231  0.19352595    -0.05700
C2166       C  0.31849066  0.37735985  0.18318754    -0.05700
C2167       C  0.31218039  0.36603874  0.16924666    -0.23800
C2168       C  0.30439361  0.32924797  0.16532586     0.18400
C2169       C  0.30395713  0.30381524  0.17547497     0.15600
C2170       C  0.31007239  0.31532815  0.18955630    -0.18900
C2171       C  0.29646605  0.26708177  0.17134687    -0.20700
C2172       C  0.28723137  0.25495472  0.15744290    -0.13300
C2173       C  0.28541267  0.27942978  0.14752135     0.03400
C2174       C  0.29544589  0.31701536  0.15147905    -0.25400
H2175       H  0.32403521  0.40584427  0.18590469     0.08500
H2176       H  0.31278421  0.38589166  0.16154686     0.12100
H2177       H  0.30947774  0.29576330  0.19738645     0.12000
H2178       H  0.29633346  0.24726260  0.17895387     0.11800
H2179       H  0.27924873  0.22577615  0.15464487     0.12300
H2180       H  0.29431735  0.33619124  0.14385996     0.14300
C2181       C  0.19700891  0.97289370  0.60913535    -0.05700
C2182       C  0.17694094  0.97166699  0.59702228    -0.05700
C2183       C  0.15082022  0.93642053  0.59085451    -0.23800
C2184       C  0.14455487  0.90176587  0.59661187     0.18400
C2185       C  0.16432034  0.90256019  0.60882059     0.15600
C2186       C  0.19019833  0.93799931  0.61502836    -0.18900
C2187       C  0.15844487  0.86792978  0.61446619    -0.20700
C2188       C  0.13421404  0.83286510  0.60779598    -0.13300
C2189       C  0.11509124  0.83174642  0.59543593     0.03400
C2190       C  0.11976554  0.86644225  0.59011799    -0.25400
H2191       H  0.18134497  0.99795127  0.59231303     0.08500
H2192       H  0.13586713  0.93629647  0.58147899     0.12100
H2193       H  0.20544108  0.93830633  0.62435204     0.12000
H2194       H  0.17336037  0.86804875  0.62385128     0.11800
H2195       H  0.13132454  0.80675878  0.61210951     0.12300
H2196       H  0.10543326  0.86628424  0.58056579     0.14300
C2197       C  0.29477214  0.90987152  0.53602323    -0.05700
C2198       C  0.26550743  0.91854595  0.53345105    -0.05700
C2199       C  0.22686172  0.89168150  0.53611557    -0.23800
C2200       C  0.21663047  0.85541049  0.54132125     0.18400
C2201       C  0.24580799  0.84650744  0.54427213     0.15600
C2202       C  0.28491616  0.87400960  0.54170551    -0.18900
C2203       C  0.23519290  0.81015354  0.54961603    -0.20700
C2204       C  0.19629048  0.78350385  0.55243627    -0.13300
C2205       C  0.16723795  0.79247319  0.54973970     0.03400
C2206       C  0.17767278  0.82824258  0.54386605    -0.25400
H2207       H  0.27254072  0.94601633  0.52901174     0.08500
H2208       H  0.20493159  0.89908819  0.53389848     0.12100
H2209       H  0.30730036  0.86694883  0.54350111     0.12000
H2210       H  0.25701288  0.80267355  0.55192629     0.11800
H2211       H  0.18901543  0.75628439  0.55715142     0.12300
H2212       H  0.15571396  0.83589200  0.54204541     0.14300
C2213       C  0.93816933  0.73757431  0.57958889    -0.05700
C2214       C  0.90648056  0.70785481  0.58682661    -0.05700
C2215       C  0.88209047  0.71545050  0.59499878    -0.23800
C2216       C  0.88848506  0.75290371  0.59604635     0.18400
C2217       C  0.91939442  0.78291977  0.58850147     0.15600
C2218       C  0.94417433  0.77515766  0.58039524    -0.18900
C2219       C  0.92507241  0.82021619  0.58928037    -0.20700
C2220       C  0.90021924  0.82756790  0.59732648    -0.13300
C2221       C  0.86980278  0.79803652  0.60503011     0.03400
C2222       C  0.86431790  0.76075542  0.60444151    -0.25400
H2223       H  0.90112857  0.67867815  0.58655498     0.08500
H2224       H  0.85841960  0.69202200  0.60062181     0.12100
H2225       H  0.96842694  0.79844217  0.57493383     0.12000
H2226       H  0.94848592  0.84362440  0.58356176     0.11800
H2227       H  0.90486090  0.85649546  0.59758389     0.12300
H2228       H  0.84053521  0.73767381  0.61016012     0.14300
C2229       C  0.92141602  0.62342900  0.65894953    -0.05700
C2230       C  0.90283321  0.63586198  0.64977907    -0.05700
C2231       C  0.91652120  0.64655122  0.63617043    -0.23800
C2232       C  0.94930321  0.64546896  0.63160838     0.18400
C2233       C  0.96890870  0.63419740  0.64090435     0.15600
C2234       C  0.95466839  0.62297490  0.65445659    -0.18900
C2235       C  0.00238586  0.63424270  0.63648001    -0.20700
C2236       C  0.01620681  0.64510528  0.62290011    -0.13300
C2237       C  0.99628497  0.65529005  0.61349387     0.03400
C2238       C  0.96285130  0.65548561  0.61791743    -0.25400
H2239       H  0.87720604  0.63649708  0.65302861     0.08500
H2240       H  0.90137175  0.65545751  0.62919860     0.12100
H2241       H  0.96957743  0.61398154  0.66151822     0.12000
H2242       H  0.01788051  0.62592441  0.64352113     0.11800
H2243       H  0.04212832  0.64500072  0.61967485     0.12300
H2244       H  0.94776773  0.66406016  0.61076155     0.14300
C2245       C  0.84275687  0.59255087  0.44314423    -0.05700
C2246       C  0.82299441  0.57452012  0.43078978    -0.05700
C2247       C  0.79709861  0.58371092  0.42488640    -0.23800
C2248       C  0.79041920  0.61122414  0.43116634     0.18400
C2249       C  0.80932900  0.62909638  0.44372743     0.15600
C2250       C  0.83533821  0.61955859  0.44968868    -0.18900
C2251       C  0.80254678  0.65683812  0.44987926    -0.20700
C2252       C  0.77858022  0.66786861  0.44332715    -0.13300
C2253       C  0.76074574  0.65109602  0.43056963     0.03400
C2254       C  0.76605781  0.62197385  0.42478470    -0.25400
H2255       H  0.82780593  0.55345993  0.42550818     0.08500
H2256       H  0.78277389  0.56972473  0.41526175     0.12100
H2257       H  0.85018314  0.63359246  0.45923557     0.12000
H2258       H  0.81659082  0.67075222  0.45954514     0.11800
H2259       H  0.77496370  0.69034959  0.44804488     0.12300
H2260       H  0.75255373  0.60869564  0.41496731     0.14300
C2261       C  0.93757318  0.60770184  0.47891546    -0.05700
C2262       C  0.94622682  0.58557863  0.48782812    -0.05700
C2263       C  0.96134007  0.59918246  0.50106525    -0.23800
C2264       C  0.96863329  0.63543354  0.50554278     0.18400
C2265       C  0.96190547  0.65881491  0.49642674     0.15600
C2266       C  0.94602270  0.64462840  0.48320508    -0.18900
C2267       C  0.97039573  0.69558539  0.50083968    -0.20700
C2268       C  0.98398305  0.70843821  0.51434705    -0.13300
C2269       C  0.98868973  0.68447436  0.52370020     0.03400
C2270       C  0.98168728  0.64827529  0.51910371    -0.25400
H2271       H  0.93991797  0.55705936  0.48476235     0.08500
H2272       H  0.96666289  0.58105257  0.50789409     0.12100
H2273       H  0.93984363  0.66207003  0.47632726     0.12000
H2274       H  0.96586060  0.71410315  0.49393810     0.11800
H2275       H  0.98945454  0.73651465  0.51764340     0.12300
H2276       H  0.98597265  0.62984889  0.52616099     0.14300
C2277       C  0.90804332  0.51836563  0.43940489    -0.05700
C2278       C  0.87580835  0.48633109  0.43345744    -0.05700
C2279       C  0.88022087  0.45915228  0.42584321    -0.23800
C2280       C  0.91709918  0.46400785  0.42379962     0.18400
C2281       C  0.94982289  0.49667111  0.42947945     0.15600
C2282       C  0.94504211  0.52338899  0.43741929    -0.18900
C2283       C  0.98675383  0.50200388  0.42713977    -0.20700
C2284       C  0.99117790  0.47467397  0.41963454    -0.13300
C2285       C  0.95874073  0.44130871  0.41436969     0.03400
C2286       C  0.92173008  0.43652589  0.41632270    -0.25400
H2287       H  0.84704969  0.48213985  0.43482788     0.08500
H2288       H  0.85482639  0.43442245  0.42152821     0.12100
H2289       H  0.97006423  0.54844972  0.44178072     0.12000
H2290       H  0.01219029  0.52702648  0.43128758     0.11800
H2291       H  0.02007440  0.47922555  0.41830791     0.12300
H2292       H  0.89645715  0.41108474  0.41229759     0.14300
C2293       C  0.26014977  0.41955614  0.55315592    -0.05700
C2294       C  0.26526390  0.45413905  0.55886823    -0.05700
C2295       C  0.24396997  0.47035037  0.55396394    -0.23800
C2296       C  0.21704898  0.45225499  0.54327847     0.18400
C2297       C  0.21316639  0.41860526  0.53699223     0.15600
C2298       C  0.23493258  0.40268408  0.54186857    -0.18900
C2299       C  0.18645049  0.40051004  0.52627972    -0.20700
C2300       C  0.16302953  0.41491651  0.52208035    -0.13300
C2301       C  0.16571827  0.44774073  0.52850934     0.03400
C2302       C  0.19326317  0.46661604  0.53902152    -0.25400
H2303       H  0.28472274  0.46800679  0.56751976     0.08500
H2304       H  0.24768896  0.49635398  0.55882813     0.12100
H2305       H  0.23066869  0.37608187  0.53734985     0.12000
H2306       H  0.18313537  0.37477800  0.52131320     0.11800
H2307       H  0.14219761  0.39971509  0.51391502     0.12300
H2308       H  0.19592591  0.49210785  0.54397048     0.14300
C2309       C  0.10326615  0.52591189  0.53596186    -0.05700
C2310       C  0.13315931  0.55336057  0.54441944    -0.05700
C2311       C  0.12809767  0.58011279  0.55216754    -0.23800
C2312       C  0.09277782  0.57953490  0.55180265     0.18400
C2313       C  0.06218368  0.55129533  0.54365441     0.15600
C2314       C  0.06771861  0.52501214  0.53569985    -0.18900
C2315       C  0.02659023  0.54997558  0.54348764    -0.20700
C2316       C  0.02156638  0.57694424  0.55099427    -0.13300
C2317       C  0.05208103  0.60616004  0.55879442     0.03400
C2318       C  0.08764565  0.60693239  0.55926925    -0.25400
H2319       H  0.16079480  0.55462404  0.54483660     0.08500
H2320       H  0.15187511  0.60135474  0.55839364     0.12100
H2321       H  0.04422690  0.50364932  0.52938850     0.12000
H2322       H  0.00272057  0.52837253  0.53738645     0.11800
H2323       H  0.99386011  0.57546133  0.55034617     0.12300
H2324       H  0.11143962  0.62909642  0.56524047     0.14300
C2325       C  0.02996933  0.36862318  0.44867754    -0.05700
C2326       C  0.04258734  0.34852489  0.45692144    -0.05700
C2327       C  0.05600098  0.36115612  0.47040567    -0.23800
C2328       C  0.05638276  0.39371211  0.47590491     0.18400
C2329       C  0.04242808  0.41334313  0.46788648     0.15600
C2330       C  0.02956478  0.40082701  0.45426817    -0.18900
C2331       C  0.04227117  0.44551637  0.47355484    -0.20700
C2332       C  0.05722019  0.45901204  0.48687394    -0.13300
C2333       C  0.07270640  0.44063001  0.49466166     0.03400
C2334       C  0.07131241  0.40741500  0.48918312    -0.25400
H2335       H  0.04309611  0.32369901  0.45278667     0.08500
H2336       H  0.06650868  0.34574863  0.47647214     0.12100
H2337       H  0.01935163  0.41617038  0.44799648     0.12000
H2338       H  0.03135310  0.46070390  0.46757612     0.11800
H2339       H  0.05794380  0.48457938  0.49085727     0.12300
H2340       H  0.08264476  0.39254160  0.49513953     0.14300
loop_ 
_geom_bond_atom_site_label_1 
_geom_bond_atom_site_label_2 
_geom_bond_distance 
_geom_bond_site_symmetry_2 
_ccdc_geom_bond_type 
C1            N2   1.365       .  A
C1            N6   1.366       .  A
C1         C2309   1.486       .  S
N2            C3   1.361       .  A
C3            N4   1.350       .  A
C3         C2301   1.481       .  S
N4            C5   1.351       .  A
C5            N6   1.361       .  A
C5         C2333   1.481       .  S
C7            N8   1.358       .  A
C7           N12   1.352       .  A
C7         C2277   1.472       .  S
N8            C9   1.362       .  A
C9           N10   1.362       .  A
C9         C2261   1.479       .  S
N10          C11   1.360       .  A
C11          N12   1.355       .  A
C11        C2245   1.481       .  S
Fe13         O29   2.044       .  S
Fe13         O19   2.062       .  S
Fe13         O26   2.063   1_655  S
Fe13         O18   2.047       .  S
Fe13         O24   1.971   1_655  S
Fe14         O17   2.080       .  S
Fe14         O21   2.068       .  S
Fe14         O25   2.083       .  S
Fe14         O30   2.051       .  S
Fe14         O24   1.977       .  S
Fe15         O33   2.056       .  S
Fe15         O20   2.072       .  S
Fe15         O27   2.079   1_455  S
Fe15         O16   2.084       .  S
Fe15         O24   1.976       .  S
O16          C23   1.271   1_455  A
O17          C31   1.274       .  A
O18          C23   1.265       .  A
O19          C22   1.268       .  A
O20          C32   1.273       .  A
O21          C34   1.267       .  A
C22        C2213   1.490       .  S
C22          O27   1.271       .  A
C23        C2269   1.479       .  S
O25          C28   1.272       .  A
O26          C28   1.270       .  A
C28        C2317   1.491       .  S
O29          C34   1.264   1_655  A
O30          C32   1.267       .  A
C31        C2189   1.486       .  S
C31          O33   1.269       .  A
C32        C2205   1.477       .  S
C34        C2237   1.471   1_455  S
C35          N36   1.369       .  A
C35          N40   1.367       .  A
C35        C2149   1.488       .  S
N36          C37   1.363       .  A
C37          N38   1.351       .  A
C37        C2173   1.479       .  S
N38          C39   1.350       .  A
C39          N40   1.361       .  A
C39        C2133   1.482       .  S
C41          N42   1.358       .  A
C41          N46   1.362       .  A
C41        C2117   1.478       .  S
N42          C43   1.354       .  A
C43          N44   1.354       .  A
C43        C2109   1.467       .  S
N44          C45   1.357       .  A
C45          N46   1.361       .  A
C45        C2093   1.483       .  S
Fe47         O63   2.062       .  S
Fe47         O53   2.040       .  S
Fe47         O60   2.041       .  S
Fe47         O52   2.064       .  S
Fe47         O58   1.967       .  S
Fe48         O51   2.048       .  S
Fe48         O55   2.077       .  S
Fe48         O59   2.065       .  S
Fe48         O64   2.072       .  S
Fe48         O58   1.975   1_565  S
Fe49         O67   2.082   1_545  S
Fe49         O54   2.069   1_545  S
Fe49         O61   2.093       .  S
Fe49         O50   2.095       .  S
Fe49         O58   1.977       .  S
O50          C57   1.276       .  A
O51          C65   1.267       .  A
O52          C57   1.271       .  A
O53          C56   1.262       .  A
O54          C66   1.270       .  A
O55          C68   1.272       .  A
C56        C2069   1.487       .  S
C56          O61   1.271       .  A
C57        C2157   1.497       .  S
O59          C62   1.266   1_565  A
O60          C62   1.263       .  A
C62        C2101   1.469       .  S
O63          C68   1.270   1_545  A
O64          C66   1.272       .  A
C65        C2021   1.482       .  S
C65          O67   1.274       .  A
C66        C2045   1.486       .  S
C68        C2061   1.484       .  S
Fe69         O85   2.062       .  S
Fe69         O75   2.071       .  S
Fe69         O82   2.075       .  S
Fe69         O74   2.058       .  S
Fe69         O80   1.969       .  S
Fe70         O73   2.048       .  S
Fe70         O77   2.072       .  S
Fe70         O81   2.053       .  S
Fe70         O86   2.078       .  S
Fe70         O80   1.968       .  S
Fe71         O89   2.081       .  S
Fe71         O76   2.049       .  S
Fe71         O83   2.050       .  S
Fe71         O72   2.070       .  S
Fe71         O80   1.971       .  S
O72          C79   1.269       .  A
O73          C87   1.266       .  A
O74          C79   1.266       .  A
O75          C78   1.271       .  A
O76          C88   1.268       .  A
O77          C90   1.270       .  A
C78        C2125   1.472       .  S
C78          O83   1.267       .  A
C79        C2005   1.476       .  S
O81          C84   1.267       .  A
O82          C84   1.271       .  A
C84        C1997   1.478       .  S
O85          C90   1.267       .  A
O86          C88   1.272       .  A
C87        C1973   1.479       .  S
C87          O89   1.272       .  A
C88        C1957   1.480       .  S
C90        C2165   1.484       .  S
C91          N92   1.366       .  A
C91          N96   1.368       .  A
C91        C1949   1.485       .  S
N92          C93   1.358       .  A
C93          N94   1.349       .  A
C93        C2013   1.476       .  S
N94          C95   1.349       .  A
C95          N96   1.362       .  A
C95        C1933   1.473       .  S
C97          N98   1.364       .  A
C97         N102   1.361       .  A
C97        C1989   1.478       .  S
N98          C99   1.360       .  A
C99         N100   1.350       .  A
C99        C1893   1.461       .  S
N100        C101   1.350       .  A
C101        N102   1.356       .  A
C101       C1917   1.474       .  S
Fe103       O119   2.061   1_455  S
Fe103       O109   2.043       .  S
Fe103       O116   2.037       .  S
Fe103       O108   2.067       .  S
Fe103       O114   1.960   1_455  S
Fe104       O107   2.063       .  S
Fe104       O111   2.064       .  S
Fe104       O115   2.077       .  S
Fe104       O120   2.066       .  S
Fe104       O114   1.967       .  S
Fe105       O123   2.065       .  S
Fe105       O110   2.070       .  S
Fe105       O117   2.084   1_655  S
Fe105       O106   2.070   1_655  S
Fe105       O114   1.965       .  S
O106        C113   1.269       .  A
O107        C121   1.270       .  A
O108        C113   1.269       .  A
O109        C112   1.265       .  A
O110        C122   1.271       .  A
O111        C124   1.269       .  A
C112       C2325   1.473       .  S
C112        O117   1.272       .  A
C113       C1941   1.484       .  S
O115        C118   1.271       .  A
O116        C118   1.265   1_455  A
C118       C1909   1.468   1_655  S
O119        C124   1.268       .  A
O120        C122   1.271       .  A
C121       C1885   1.481       .  S
C121        O123   1.271       .  A
C122       C1869   1.483       .  S
C124       C2285   1.482       .  S
C125        N126   1.361       .  A
C125        N130   1.361       .  A
C125       C2053   1.484       .  S
N126        C127   1.358       .  A
C127        N128   1.354       .  A
C127       C1853   1.474   1_554  S
N128        C129   1.356       .  A
C129        N130   1.362       .  A
C129       C1829   1.482       .  S
C131        N132   1.366       .  A
C131        N136   1.362       .  A
C131       C1821   1.487       .  S
N132        C133   1.365       .  A
C133        N134   1.357       .  A
C133       C2077   1.480       .  S
N134        C135   1.355       .  A
C135        N136   1.358       .  A
C135       C1797   1.486       .  S
Fe137       O153   2.054       .  S
Fe137       O143   2.084   1_545  S
Fe137       O150   2.088       .  S
Fe137       O142   2.049       .  S
Fe137       O148   1.974       .  S
Fe138       O141   2.061       .  S
Fe138       O145   2.075       .  S
Fe138       O149   2.060       .  S
Fe138       O154   2.068       .  S
Fe138       O148   1.977       .  S
Fe139       O157   2.069       .  S
Fe139       O144   2.048       .  S
Fe139       O151   2.051       .  S
Fe139       O140   2.070       .  S
Fe139       O148   1.973       .  S
O140        C147   1.268       .  A
O141        C155   1.271       .  A
O142        C147   1.265       .  A
O143        C146   1.273       .  A
O144        C156   1.266       .  A
O145        C158   1.268       .  A
C146       C1765   1.481       .  S
C146        O151   1.267   1_565  A
C147       C1845   1.473       .  S
O149        C152   1.270       .  A
O150        C152   1.275       .  A
C152       C1813   1.492       .  S
O153        C158   1.264       .  A
O154        C156   1.268       .  A
C155       C1733   1.481       .  S
C155        O157   1.273       .  A
C156       C1749   1.478       .  S
C158       C1781   1.480       .  S
C159        N160   1.360       .  A
C159        N164   1.366       .  A
C159       C1717   1.486       .  S
N160        C161   1.353       .  A
C161        N162   1.351       .  A
C161       C2229   1.475       .  S
N162        C163   1.355       .  A
C163        N164   1.365       .  A
C163       C1701   1.485       .  S
C165        N166   1.359       .  A
C165        N170   1.364       .  A
C165       C2221   1.481       .  S
N166        C167   1.357       .  A
C167        N168   1.356       .  A
C167       C1677   1.483       .  S
N168        C169   1.358       .  A
C169        N170   1.364       .  A
C169       C1685   1.484       .  S
C171        N172   1.364       .  A
C171        N176   1.368       .  A
C171       C1653   1.497       .  S
N172        C173   1.359       .  A
C173        N174   1.353       .  A
C173       C1789   1.482       .  S
N174        C175   1.356       .  A
C175        N176   1.367       .  A
C175       C1637   1.491       .  S
C177        N178   1.359       .  A
C177        N182   1.365       .  A
C177       C1773   1.485       .  S
N178        C179   1.354       .  A
C179        N180   1.351       .  A
C179       C1621   1.469       .  S
N180        C181   1.356       .  A
C181        N182   1.364       .  A
C181       C1605   1.485       .  S
Fe183       O199   2.057       .  S
Fe183       O189   2.061       .  S
Fe183       O196   2.063       .  S
Fe183       O188   2.081       .  S
Fe183       O194   1.969       .  S
Fe184       O187   2.053       .  S
Fe184       O191   2.083       .  S
Fe184       O195   2.055       .  S
Fe184       O200   2.068       .  S
Fe184       O194   1.970       .  S
Fe185       O203   2.088       .  S
Fe185       O190   2.052       .  S
Fe185       O197   2.065       .  S
Fe185       O186   2.093       .  S
Fe185       O194   1.971       .  S
O186        C193   1.279       .  A
O187        C201   1.269       .  A
O188        C193   1.277       .  A
O189        C192   1.263       .  A
O190        C202   1.266       .  A
O191        C204   1.273       .  A
C192       C1693   1.476       .  S
C192        O197   1.265       .  A
C193       C1661   1.494       .  S
O195        C198   1.264       .  A
O196        C198   1.265       .  A
C198       C1629   1.467       .  S
O199        C204   1.271       .  A
O200        C202   1.269       .  A
C201       C1573   1.483       .  S
C201        O203   1.277       .  A
C202       C1589   1.477       .  S
C204       C1725   1.477       .  S
C205        N206   1.365       .  A
C205        N210   1.358       .  A
C205       C1549   1.484       .  S
N206        C207   1.364       .  A
C207        N208   1.356       .  A
C207       C1597   1.484       .  S
N208        C209   1.351       .  A
C209        N210   1.353       .  A
C209       C1557   1.471       .  S
C211        N212   1.355       .  A
C211        N216   1.362       .  A
C211       C1533   1.481       .  S
N212        C213   1.354       .  A
C213        N214   1.357       .  A
C213       C1741   1.481   1_455  S
N214        C215   1.361       .  A
C215        N216   1.365       .  A
C215       C1517   1.484       .  S
Fe217       O233   2.071       .  S
Fe217       O223   2.054       .  S
Fe217       O230   2.048       .  S
Fe217       O222   2.076   1_455  S
Fe217       O228   1.973       .  S
Fe218       O221   2.046       .  S
Fe218       O225   2.055       .  S
Fe218       O229   2.047       .  S
Fe218       O234   2.061       .  S
Fe218       O228   1.973       .  S
Fe219       O237   2.069   1_655  S
Fe219       O224   2.060       .  S
Fe219       O231   2.073       .  S
Fe219       O220   2.067       .  S
Fe219       O228   1.976   1_655  S
O220        C227   1.273       .  A
O221        C235   1.269       .  A
O222        C227   1.273       .  A
O223        C226   1.264       .  A
O224        C236   1.265       .  A
O225        C238   1.266       .  A
C226       C1509   1.477       .  S
C226        O231   1.267   1_455  A
C227       C1485   1.488       .  S
O229        C232   1.265       .  A
O230        C232   1.266       .  A
C232       C1493   1.462       .  S
O233        C238   1.270       .  A
O234        C236   1.267   1_455  A
C235       C1461   1.469       .  S
C235        O237   1.275       .  A
C236       C1709   1.483       .  S
C238       C1541   1.480       .  S
Fe239       O255   2.038       .  S
Fe239       O245   2.074       .  S
Fe239       O252   2.068       .  S
Fe239       O244   2.048       .  S
Fe239       O250   1.964       .  S
Fe240       O243   2.053       .  S
Fe240       O247   2.077       .  S
Fe240       O251   2.048       .  S
Fe240       O256   2.079       .  S
Fe240       O250   1.968       .  S
Fe241       O259   2.067       .  S
Fe241       O246   2.063       .  S
Fe241       O253   2.061       .  S
Fe241       O242   2.078       .  S
Fe241       O250   1.964       .  S
O242        C249   1.270       .  A
O243        C257   1.267       .  A
O244        C249   1.265       .  A
O245        C248   1.271       .  A
O246        C258   1.272       .  A
O247        C260   1.269       .  A
C248       C1525   1.483       .  S
C248        O253   1.270       .  A
C249       C1453   1.476       .  S
O251        C254   1.267       .  A
O252        C254   1.270       .  A
C254       C1429   1.473       .  S
O255        C260   1.264       .  A
O256        C258   1.273       .  A
C257       C1421   1.478       .  S
C257        O259   1.270       .  A
C258       C1805   1.486       .  S
C260       C1565   1.467       .  S
C261        N262   1.359       .  A
C261        N266   1.363       .  A
C261       C1397   1.481       .  S
N262        C263   1.357       .  A
C263        N264   1.354       .  A
C263       C1381   1.481       .  S
N264        C265   1.358       .  A
C265        N266   1.363       .  A
C265       C1445   1.481   1_554  S
C267        N268   1.361       .  A
C267        N272   1.358       .  A
C267       C1437   1.472       .  S
N268        C269   1.358       .  A
C269        N270   1.352       .  A
C269       C1349   1.476       .  S
N270        C271   1.352       .  A
C271        N272   1.355       .  A
C271       C1373   1.464       .  S
Fe273       O289   2.067       .  S
Fe273       O279   2.047       .  S
Fe273       O286   2.052       .  S
Fe273       O278   2.072       .  S
Fe273       O284   1.977       .  S
Fe274       O277   2.048       .  S
Fe274       O281   2.069       .  S
Fe274       O285   2.066       .  S
Fe274       O290   2.071       .  S
Fe274       O284   1.983       .  S
Fe275       O293   2.071       .  S
Fe275       O280   2.039       .  S
Fe275       O287   2.042       .  S
Fe275       O276   2.062       .  S
Fe275       O284   1.977       .  S
O276        C283   1.269       .  A
O277        C291   1.265       .  A
O278        C283   1.271       .  A
O279        C282   1.264       .  A
O280        C292   1.266       .  A
O281        C294   1.271       .  A
C282       C1365   1.455       .  S
C282        O287   1.263       .  A
C283       C1317   1.486       .  S
O285        C288   1.266       .  A
O286        C288   1.266       .  A
C288       C1333   1.476       .  S
O289        C294   1.270       .  A
O290        C292   1.272       .  A
C291       C1837   1.477       .  S
C291        O293   1.269       .  A
C292       C1301   1.466       .  S
C294       C1405   1.486       .  S
C295        N296   1.364       .  A
C295        N300   1.358       .  A
C295       C1477   1.480       .  S
N296        C297   1.364       .  A
C297        N298   1.355       .  A
C297       C1285   1.479       .  S
N298        C299   1.353       .  A
C299        N300   1.355       .  A
C299       C1269   1.477       .  S
C301        N302   1.358       .  A
C301        N306   1.366       .  A
C301       C1261   1.477       .  S
N302        C303   1.350       .  A
C303        N304   1.348   1_655  A
C303       C1501   1.457       .  S
N304        C305   1.351       .  A
C305        N306   1.363   1_455  A
C305       C1237   1.480       .  S
C307        N308   1.367       .  A
C307        N312   1.364       .  A
C307       C1205   1.482       .  S
N308        C309   1.362       .  A
C309        N310   1.349       .  A
C309       C2197   1.472       .  S
N310        C311   1.348       .  A
C311        N312   1.356       .  A
C311       C1229   1.471       .  S
C313        N314   1.361       .  A
C313        N318   1.363       .  A
C313       C1189   1.488       .  S
N314        C315   1.356       .  A
C315        N316   1.353       .  A
C315       C1173   1.475       .  S
N316        C317   1.356       .  A
C317        N318   1.363       .  A
C317       C1877   1.482       .  S
Fe319       O335   2.041       .  S
Fe319       O325   2.082       .  S
Fe319       O332   2.080       .  S
Fe319       O324   2.044       .  S
Fe319       O330   1.961       .  S
Fe320       O323   2.058       .  S
Fe320       O327   2.086       .  S
Fe320       O331   2.058       .  S
Fe320       O336   2.081       .  S
Fe320       O330   1.971   1_565  S
Fe321       O339   2.076       .  S
Fe321       O326   2.038       .  S
Fe321       O333   2.037   1_565  S
Fe321       O322   2.074   1_565  S
Fe321       O330   1.967   1_565  S
O322        C329   1.268       .  A
O323        C337   1.269       .  A
O324        C329   1.264       .  A
O325        C328   1.273       .  A
O326        C338   1.265       .  A
O327        C340   1.271   1_565  A
C328       C1253   1.472       .  S
C328        O333   1.265       .  A
C329       C1181   1.470       .  S
O331        C334   1.269       .  A
O332        C334   1.273   1_545  A
C334       C1213   1.482       .  S
O335        C340   1.264       .  A
O336        C338   1.273       .  A
C337       C1669   1.483       .  S
C337        O339   1.272       .  A
C338       C1165   1.478       .  S
C340       C1293   1.474       .  S
Fe341       O357   2.061   1_565  S
Fe341       O347   2.057       .  S
Fe341       O354   2.049       .  S
Fe341       O346   2.074       .  S
Fe341       O352   1.973   1_565  S
Fe342       O345   2.040       .  S
Fe342       O349   2.081       .  S
Fe342       O353   2.055       .  S
Fe342       O358   2.085       .  S
Fe342       O352   1.980       .  S
Fe343       O361   2.081       .  S
Fe343       O348   2.039       .  S
Fe343       O355   2.048       .  S
Fe343       O344   2.079   1_545  S
Fe343       O352   1.975       .  S
O344        C351   1.273       .  A
O345        C359   1.264       .  A
O346        C351   1.272       .  A
O347        C350   1.265   1_565  A
O348        C360   1.264       .  A
O349        C362   1.273       .  A
C350       C1221   1.466       .  S
C350        O355   1.263       .  A
C351       C1133   1.491       .  S
O353        C356   1.265       .  A
O354        C356   1.264   1_565  A
C356       C1149   1.466   1_545  S
O357        C362   1.270       .  A
O358        C360   1.274       .  A
C359       C1117   1.481       .  S
C359        O361   1.273       .  A
C360       C1925   1.475       .  S
C362       C1197   1.485       .  S
C363        N364   1.361       .  A
C363        N368   1.363       .  A
C363       C1125   1.493       .  S
N364        C365   1.360       .  A
C365        N366   1.357   1_455  A
C365       C1093   1.484       .  S
N366        C367   1.359       .  A
C367        N368   1.364   1_655  A
C367       C1085   1.489       .  S
C369        N370   1.358       .  A
C369        N374   1.364       .  A
C369       C1061   1.482       .  S
N370        C371   1.352       .  A
C371        N372   1.351       .  A
C371       C1141   1.466       .  S
N372        C373   1.356       .  A
C373        N374   1.363       .  A
C373       C1045   1.481       .  S
C375        N376   1.366       .  A
C375        N380   1.361       .  A
C375       C1325   1.481       .  S
N376        C377   1.363   1_655  A
C377        N378   1.354       .  A
C377       C2037   1.487       .  S
N378        C379   1.352   1_455  A
C379        N380   1.356       .  A
C379       C1037   1.477       .  S
C381        N382   1.356       .  A
C381        N386   1.356       .  A
C381       C1021   1.481       .  S
N382        C383   1.359       .  A
C383        N384   1.361       .  A
C383       C1341   1.476       .  S
N384        C385   1.361       .  A
C385        N386   1.357       .  A
C385       C1981   1.482       .  S
Fe387       O403   2.070   1_655  S
Fe387       O393   2.060       .  S
Fe387       O400   2.051   1_655  S
Fe387       O392   2.061       .  S
Fe387       O398   1.955       .  S
Fe388       O391   2.057   1_455  S
Fe388       O395   2.056       .  S
Fe388       O399   2.081       .  S
Fe388       O404   2.049       .  S
Fe388       O398   1.952   1_455  S
Fe389       O407   2.066       .  S
Fe389       O394   2.076       .  S
Fe389       O401   2.081       .  S
Fe389       O390   2.070       .  S
Fe389       O398   1.960       .  S
O390        C397   1.266       .  A
O391        C405   1.267       .  A
O392        C397   1.265       .  A
O393        C396   1.273       .  A
O394        C406   1.275   1_655  A
O395        C408   1.264       .  A
C396       C1013   1.479       .  S
C396        O401   1.276       .  A
C397       C1101   1.471       .  S
O399        C402   1.272       .  A
O400        C402   1.269       .  A
C402       C1069   1.480       .  S
O403        C408   1.267       .  A
O404        C406   1.270       .  A
C405       C1005   1.477       .  S
C405        O407   1.268       .  A
C406       C1901   1.471       .  S
C408       C1029   1.464       .  S
C409        N410   1.363       .  A
C409        N414   1.363       .  A
C409        C965   1.473       .  S
N410        C411   1.357       .  A
C411        N412   1.349       .  A
C411        C981   1.472       .  S
N412        C413   1.348       .  A
C413        N414   1.359       .  A
C413       C1469   1.467       .  S
C415        N416   1.361   1_545  A
C415        N420   1.357       .  A
C415        C957   1.479   1_545  S
N416        C417   1.364   1_565  A
C417        N418   1.358       .  A
C417        C941   1.483       .  S
N418        C419   1.356       .  A
C419        N420   1.355       .  A
C419       C1413   1.480       .  S
Fe421       O437   2.067   1_545  S
Fe421       O427   2.050       .  S
Fe421       O434   2.042       .  S
Fe421       O426   2.071       .  S
Fe421       O432   1.966       .  S
Fe422       O425   2.072       .  S
Fe422       O429   2.066       .  S
Fe422       O433   2.079       .  S
Fe422       O438   2.060   1_565  S
Fe422       O432   1.977   1_565  S
Fe423       O441   2.072       .  S
Fe423       O428   2.060       .  S
Fe423       O435   2.078       .  S
Fe423       O424   2.071       .  S
Fe423       O432   1.973       .  S
O424        C431   1.269       .  A
O425        C439   1.270   1_565  A
O426        C431   1.270       .  A
O427        C430   1.265       .  A
O428        C440   1.270       .  A
O429        C442   1.271       .  A
C430        C933   1.470       .  S
C430        O435   1.270       .  A
C431        C901   1.487       .  S
O433        C436   1.268   1_565  A
O434        C436   1.263       .  A
C436        C917   1.474       .  S
O437        C442   1.271       .  A
O438        C440   1.271       .  A
C439       C1645   1.489   1_545  S
C439        O441   1.272       .  A
C440       C1277   1.477       .  S
C442        C973   1.483       .  S
C443        N444   1.359   1_565  A
C443        N448   1.364       .  A
C443        C869   1.476       .  S
N444        C445   1.357       .  A
C445        N446   1.355       .  A
C445       C1861   1.480       .  S
N446        C447   1.357       .  A
C447        N448   1.364   1_545  A
C447        C885   1.481       .  S
C449        N450   1.360       .  A
C449        N454   1.362       .  A
C449        C861   1.485       .  S
N450        C451   1.358       .  A
C451        N452   1.356       .  A
C451       C1965   1.481       .  S
N452        C453   1.356       .  A
C453        N454   1.360       .  A
C453        C845   1.480       .  S
C455        N456   1.363       .  A
C455        N460   1.362       .  A
C455        C813   1.486       .  S
N456        C457   1.362       .  A
C457        N458   1.354       .  A
C457       C2029   1.482       .  S
N458        C459   1.352       .  A
C459        N460   1.357       .  A
C459        C829   1.477   1_554  S
C461        N462   1.360       .  A
C461        N466   1.363       .  A
C461        C797   1.482       .  S
N462        C463   1.356       .  A
C463        N464   1.352       .  A
C463        C773   1.475       .  S
N464        C465   1.355       .  A
C465        N466   1.362       .  A
C465       C1757   1.482       .  S
C467        N468   1.361       .  A
C467        N472   1.366       .  A
C467        C741   1.480       .  S
N468        C469   1.355       .  A
C469        N470   1.347       .  A
C469       C1309   1.462   1_545  S
N470        C471   1.351       .  A
C471        N472   1.361       .  A
C471        C765   1.471       .  S
C473        N474   1.360       .  A
C473        N478   1.361       .  A
C473        C733   1.483       .  S
N474        C475   1.358       .  A
C475        N476   1.357       .  A
C475        C997   1.483       .  S
N476        C477   1.356       .  A
C477        N478   1.359       .  A
C477        C717   1.480       .  S
Fe479       O495   2.053   1_655  S
Fe479       O485   2.042       .  S
Fe479       O492   2.044       .  S
Fe479       O484   2.054       .  S
Fe479       O490   1.974   1_655  S
Fe480       O483   2.058       .  S
Fe480       O487   2.080       .  S
Fe480       O491   2.074       .  S
Fe480       O496   2.075       .  S
Fe480       O490   1.978       .  S
Fe481       O499   2.078       .  S
Fe481       O486   2.050       .  S
Fe481       O493   2.071       .  S
Fe481       O482   2.075   1_455  S
Fe481       O490   1.981       .  S
O482        C489   1.272       .  A
O483        C497   1.272       .  A
O484        C489   1.269       .  A
O485        C488   1.262       .  A
O486        C498   1.265       .  A
O487        C500   1.271       .  A
C488        C781   1.471       .  S
C488        O493   1.266   1_655  A
C489        C749   1.482       .  S
O491        C494   1.269       .  A
O492        C494   1.263   1_655  A
C494        C709   1.465   1_455  S
O495        C500   1.267       .  A
O496        C498   1.271       .  A
C497       C1389   1.484       .  S
C497        O499   1.275       .  A
C498       C2141   1.484       .  S
C500        C805   1.482       .  S
Fe501       O517   2.049       .  S
Fe501       O507   2.063   1_545  S
Fe501       O514   2.065       .  S
Fe501       O506   2.047       .  S
Fe501       O512   1.977       .  S
Fe502       O505   2.059       .  S
Fe502       O509   2.078       .  S
Fe502       O513   2.062       .  S
Fe502       O518   2.074       .  S
Fe502       O512   1.979       .  S
Fe503       O521   2.063       .  S
Fe503       O508   2.052   1_565  S
Fe503       O515   2.063       .  S
Fe503       O504   2.062       .  S
Fe503       O512   1.979   1_565  S
O504        C511   1.267   1_565  A
O505        C519   1.271   1_545  A
O506        C511   1.264       .  A
O507        C510   1.269       .  A
O508        C520   1.267       .  A
O509        C522   1.270       .  A
C510        C853   1.477       .  S
C510        O515   1.269       .  A
C511        C757   1.474       .  S
O513        C516   1.270       .  A
O514        C516   1.270       .  A
C516        C725   1.480       .  S
O517        C522   1.264       .  A
O518        C520   1.270       .  A
C519       C1053   1.479       .  S
C519        O521   1.270       .  A
C520       C2085   1.482       .  S
C522        C893   1.478       .  S
Fe523       O539   2.038       .  S
Fe523       O529   2.084       .  S
Fe523       O536   2.084       .  S
Fe523       O528   2.036       .  S
Fe523       O534   1.960   1_455  S
Fe524       O527   2.051       .  S
Fe524       O531   2.063       .  S
Fe524       O535   2.049       .  S
Fe524       O540   2.061       .  S
Fe524       O534   1.959       .  S
Fe525       O543   2.081       .  S
Fe525       O530   2.060       .  S
Fe525       O537   2.056   1_655  S
Fe525       O526   2.084   1_655  S
Fe525       O534   1.967       .  S
O526        C533   1.270       .  A
O527        C541   1.268       .  A
O528        C533   1.262       .  A
O529        C532   1.274       .  A
O530        C542   1.271       .  A
O531        C544   1.267   1_655  A
C532        C949   1.486       .  S
C532        O537   1.271       .  A
C533        C821   1.472       .  S
O535        C538   1.268       .  A
O536        C538   1.274   1_455  A
C538        C789   1.478       .  S
O539        C544   1.262       .  A
O540        C542   1.270       .  A
C541       C1613   1.481       .  S
C541        O543   1.271       .  A
C542       C1357   1.477       .  S
C544        C989   1.463       .  S
C545        N546   1.366       .  A
C545        N550   1.365       .  A
C545        C685   1.478       .  S
N546        C547   1.361       .  A
C547        N548   1.348       .  A
C547       C1109   1.477       .  S
N548        C549   1.349       .  A
C549        N550   1.358       .  A
C549        C693   1.472       .  S
C551        N552   1.354       .  A
C551        N556   1.365       .  A
C551        C669   1.482       .  S
N552        C553   1.351       .  A
C553        N554   1.355       .  A
C553       C1157   1.478       .  S
N554        C555   1.359       .  A
C555        N556   1.367       .  A
C555        C645   1.481       .  S
Fe557       O573   2.076       .  S
Fe557       O563   2.050       .  S
Fe557       O570   2.047       .  S
Fe557       O562   2.082       .  S
Fe557       O568   1.957       .  S
Fe558       O561   2.076       .  S
Fe558       O565   2.064       .  S
Fe558       O569   2.090       .  S
Fe558       O574   2.065       .  S
Fe558       O568   1.957       .  S
Fe559       O577   2.056       .  S
Fe559       O564   2.079       .  S
Fe559       O571   2.092       .  S
Fe559       O560   2.059       .  S
Fe559       O568   1.959       .  S
O560        C567   1.269       .  A
O561        C575   1.274       .  A
O562        C567   1.273       .  A
O563        C566   1.265       .  A
O564        C576   1.272       .  A
O565        C578   1.269       .  A
C566        C653   1.484       .  S
C566        O571   1.273       .  A
C567        C877   1.488       .  S
O569        C572   1.273       .  A
O570        C572   1.266       .  A
C572        C837   1.476       .  S
O573        C578   1.272       .  A
O574        C576   1.271       .  A
C575       C2253   1.481       .  S
C575        O577   1.270       .  A
C576       C1077   1.487       .  S
C578        C677   1.486       .  S
C579        N580   1.364       .  A
C579        N584   1.368       .  A
C579        C909   1.486       .  S
N580        C581   1.356       .  A
C581        N582   1.350       .  A
C581        C637   1.474       .  S
N582        C583   1.353       .  A
C583        N584   1.364       .  A
C583       C1581   1.479       .  S
C585        N586   1.358       .  A
C585        N590   1.364       .  A
C585        C613   1.488       .  S
N586        C587   1.355       .  A
C587        N588   1.354       .  A
C587        C925   1.478       .  S
N588        C589   1.358       .  A
C589        N590   1.365       .  A
C589       C2181   1.485   1_545  S
Fe591       O607   2.059       .  S
Fe591       O597   2.065       .  S
Fe591       O604   2.064       .  S
Fe591       O596   2.055       .  S
Fe591       O602   1.974       .  S
Fe592       O595   2.074       .  S
Fe592       O599   2.061       .  S
Fe592       O603   2.068       .  S
Fe592       O608   2.049       .  S
Fe592       O602   1.972       .  S
Fe593       O611   2.046       .  S
Fe593       O598   2.071       .  S
Fe593       O605   2.074       .  S
Fe593       O594   2.050       .  S
Fe593       O602   1.974       .  S
O594        C601   1.265       .  A
O595        C609   1.274       .  A
O596        C601   1.265       .  A
O597        C600   1.270       .  A
O598        C610   1.270       .  A
O599        C612   1.266       .  A
C600        C621   1.481       .  S
C600        O605   1.271       .  A
C601        C701   1.469       .  S
O603        C606   1.272       .  A
O604        C606   1.270       .  A
C606        C661   1.484       .  S
O607        C612   1.266       .  A
O608        C610   1.265       .  A
C609       C1245   1.478       .  S
C609        O611   1.267       .  A
C610       C2293   1.481       .  S
C612        C629   1.479       .  S
C613        C614   1.409       .  A
C613        C618   1.410       .  A
C614        C615   1.394       .  A
C614        H623   1.083       .  S
C615        C616   1.399       .  A
C615        H624   1.084       .  S
C616        C622   1.402       .  A
C616        C617   1.414       .  A
C617        C619   1.405       .  A
C617        C618   1.411       .  A
C618        H625   1.084       .  S
C619        C620   1.403       .  A
C619        H626   1.083       .  S
C620        C621   1.406       .  A
C620        H627   1.083       .  S
C621        C622   1.405       .  A
C622        H628   1.085       .  S
C629        C630   1.406       .  A
C629        C634   1.409       .  A
C630        C631   1.394       .  A
C630        H639   1.083       .  S
C631        C632   1.400       .  A
C631        H640   1.084       .  S
C632        C638   1.398       .  A
C632        C633   1.413       .  A
C633        C635   1.405       .  A
C633        C634   1.405       .  A
C634        H641   1.084       .  S
C635        C636   1.401       .  A
C635        H642   1.084       .  S
C636        C637   1.403       .  A
C636        H643   1.083       .  S
C637        C638   1.405       .  A
C638        H644   1.085       .  S
C645        C646   1.404       .  A
C645        C650   1.409       .  A
C646        C647   1.400       .  A
C646        H655   1.083       .  S
C647        C648   1.405       .  A
C647        H656   1.084       .  S
C648        C654   1.405       .  A
C648        C649   1.412       .  A
C649        C651   1.404       .  A
C649        C650   1.405       .  A
C650        H657   1.084       .  S
C651        C652   1.400       .  A
C651        H658   1.084       .  S
C652        C653   1.405       .  A
C652        H659   1.083       .  S
C653        C654   1.410       .  A
C654        H660   1.084       .  S
C661        C662   1.409       .  A
C661        C666   1.404       .  A
C662        C663   1.399       .  A
C662        H671   1.083       .  S
C663        C664   1.401       .  A
C663        H672   1.084       .  S
C664        C670   1.409       .  A
C664        C665   1.415       .  A
C665        C667   1.397       .  A
C665        C666   1.403       .  A
C666        H673   1.084       .  S
C667        C668   1.392       .  A
C667        H674   1.084       .  S
C668        C669   1.409       .  A
C668        H675   1.083       .  S
C669        C670   1.406       .  A
C670        H676   1.084       .  S
C677        C678   1.408       .  A
C677        C682   1.410       .  A
C678        C679   1.396       .  A
C678        H687   1.083       .  S
C679        C680   1.400       .  A
C679        H688   1.084       .  S
C680        C686   1.404       .  A
C680        C681   1.414       .  A
C681        C683   1.404       .  A
C681        C682   1.408       .  A
C682        H689   1.084       .  S
C683        C684   1.401       .  A
C683        H690   1.083       .  S
C684        C685   1.404       .  A
C684        H691   1.083       .  S
C685        C686   1.405       .  A
C686        H692   1.084       .  S
C693        C694   1.403       .  A
C693        C698   1.404       .  A
C694        C695   1.402       .  A
C694        H703   1.083       .  S
C695        C696   1.406       .  A
C695        H704   1.084       .  S
C696        C702   1.403       .  A
C696        C697   1.413       .  A
C697        C699   1.400       .  A
C697        C698   1.394       .  A
C698        H705   1.085       .  S
C699        C700   1.391       .  A
C699        H706   1.084       .  S
C700        C701   1.403       .  A
C700        H707   1.083       .  S
C701        C702   1.408       .  A
C702        H708   1.085       .  S
C709        C710   1.400   1_655  A
C709        C714   1.404       .  A
C710        C711   1.399   1_455  A
C710        H719   1.083       .  S
C711        C712   1.405       .  A
C711        H720   1.084   1_655  S
C712        C718   1.402       .  A
C712        C713   1.413       .  A
C713        C715   1.402       .  A
C713        C714   1.400       .  A
C714        H721   1.085       .  S
C715        C716   1.397       .  A
C715        H722   1.084       .  S
C716        C717   1.406       .  A
C716        H723   1.083       .  S
C717        C718   1.408       .  A
C718        H724   1.084       .  S
C725        C726   1.405       .  A
C725        C730   1.408       .  A
C726        C727   1.397       .  A
C726        H735   1.083       .  S
C727        C728   1.402       .  A
C727        H736   1.084       .  S
C728        C734   1.403       .  A
C728        C729   1.413       .  A
C729        C731   1.402       .  A
C729        C730   1.404       .  A
C730        H737   1.084       .  S
C731        C732   1.398       .  A
C731        H738   1.084       .  S
C732        C733   1.407       .  A
C732        H739   1.083       .  S
C733        C734   1.407       .  A
C734        H740   1.084       .  S
C741        C742   1.407       .  A
C741        C746   1.404       .  A
C742        C743   1.398       .  A
C742        H751   1.083       .  S
C743        C744   1.401       .  A
C743        H752   1.084       .  S
C744        C750   1.407       .  A
C744        C745   1.415       .  A
C745        C747   1.398       .  A
C745        C746   1.403       .  A
C746        H753   1.084       .  S
C747        C748   1.394       .  A
C747        H754   1.084       .  S
C748        C749   1.409       .  A
C748        H755   1.083       .  S
C749        C750   1.406       .  A
C750        H756   1.084       .  S
C757        C758   1.403   1_545  A
C757        C762   1.409       .  A
C758        C759   1.395   1_565  A
C758        H767   1.083       .  S
C759        C760   1.402       .  A
C759        H768   1.084   1_545  S
C760        C766   1.396       .  A
C760        C761   1.412       .  A
C761        C763   1.406       .  A
C761        C762   1.401       .  A
C762        H769   1.084       .  S
C763        C764   1.400       .  A
C763        H770   1.084       .  S
C764        C765   1.403       .  A
C764        H771   1.083       .  S
C765        C766   1.405       .  A
C766        H772   1.085       .  S
C773        C774   1.404       .  A
C773        C778   1.407       .  A
C774        C775   1.396   1_556  A
C774        H783   1.083       .  S
C775        C776   1.402       .  A
C775        H784   1.084       .  S
C776        C782   1.400       .  A
C776        C777   1.413   1_554  A
C777        C779   1.404   1_556  A
C777        C778   1.401       .  A
C778        H785   1.084       .  S
C779        C780   1.398       .  A
C779        H786   1.084   1_554  S
C780        C781   1.403       .  A
C780        H787   1.083       .  S
C781        C782   1.405       .  A
C782        H788   1.085       .  S
C789        C790   1.406       .  A
C789        C794   1.404       .  A
C790        C791   1.398       .  A
C790        H799   1.083       .  S
C791        C792   1.402       .  A
C791        H800   1.084       .  S
C792        C798   1.406       .  A
C792        C793   1.415       .  A
C793        C795   1.400       .  A
C793        C794   1.404       .  A
C794        H801   1.085   1_655  S
C795        C796   1.395       .  A
C795        H802   1.084   1_655  S
C796        C797   1.407       .  A
C796        H803   1.083       .  S
C797        C798   1.407       .  A
C798        H804   1.084       .  S
C805        C806   1.405       .  A
C805        C810   1.407       .  A
C806        C807   1.401       .  A
C806        H815   1.083       .  S
C807        C808   1.405       .  A
C807        H816   1.083       .  S
C808        C814   1.408       .  A
C808        C809   1.413       .  A
C809        C811   1.400       .  A
C809        C810   1.402       .  A
C810        H817   1.085       .  S
C811        C812   1.395       .  A
C811        H818   1.084       .  S
C812        C813   1.407       .  A
C812        H819   1.083       .  S
C813        C814   1.410       .  A
C814        H820   1.084       .  S
C821        C822   1.402       .  A
C821        C826   1.406       .  A
C822        C823   1.398       .  A
C822        H831   1.083       .  S
C823        C824   1.404       .  A
C823        H832   1.084       .  S
C824        C830   1.400       .  A
C824        C825   1.412       .  A
C825        C827   1.403       .  A
C825        C826   1.400       .  A
C826        H833   1.085       .  S
C827        C828   1.397       .  A
C827        H834   1.084       .  S
C828        C829   1.404       .  A
C828        H835   1.083       .  S
C829        C830   1.408       .  A
C830        H836   1.084       .  S
C837        C838   1.403       .  A
C837        C842   1.407       .  A
C838        C839   1.399       .  A
C838        H847   1.083       .  S
C839        C840   1.404       .  A
C839        H848   1.084       .  S
C840        C846   1.403       .  A
C840        C841   1.413       .  A
C841        C843   1.403       .  A
C841        C842   1.403       .  A
C842        H849   1.085       .  S
C843        C844   1.398       .  A
C843        H850   1.084       .  S
C844        C845   1.405       .  A
C844        H851   1.083       .  S
C845        C846   1.408       .  A
C846        H852   1.084       .  S
C853        C854   1.405       .  A
C853        C858   1.407       .  A
C854        C855   1.398       .  A
C854        H863   1.083       .  S
C855        C856   1.403       .  A
C855        H864   1.084       .  S
C856        C862   1.403       .  A
C856        C857   1.413       .  A
C857        C859   1.402       .  A
C857        C858   1.403       .  A
C858        H865   1.084       .  S
C859        C860   1.398       .  A
C859        H866   1.084       .  S
C860        C861   1.407       .  A
C860        H867   1.083       .  S
C861        C862   1.409       .  A
C862        H868   1.084       .  S
C869        C870   1.403       .  A
C869        C874   1.406       .  A
C870        C871   1.397       .  A
C870        H879   1.083       .  S
C871        C872   1.402       .  A
C871        H880   1.084       .  S
C872        C878   1.405       .  A
C872        C873   1.414       .  A
C873        C875   1.403       .  A
C873        C874   1.409       .  A
C874        H881   1.084       .  S
C875        C876   1.400       .  A
C875        H882   1.084       .  S
C876        C877   1.408       .  A
C876        H883   1.083       .  S
C877        C878   1.409       .  A
C878        H884   1.084       .  S
C885        C886   1.404   1_545  A
C885        C890   1.408       .  A
C886        C887   1.401       .  A
C886        H895   1.083       .  S
C887        C888   1.405   1_565  A
C887        H896   1.084       .  S
C888        C894   1.405       .  A
C888        C889   1.412       .  A
C889        C891   1.404       .  A
C889        C890   1.402       .  A
C890        H897   1.084       .  S
C891        C892   1.398       .  A
C891        H898   1.084       .  S
C892        C893   1.403       .  A
C892        H899   1.083       .  S
C893        C894   1.409       .  A
C894        H900   1.084   1_545  S
C901        C902   1.407       .  A
C901        C906   1.411       .  A
C902        C903   1.396       .  A
C902        H911   1.083       .  S
C903        C904   1.401       .  A
C903        H912   1.084       .  S
C904        C910   1.404       .  A
C904        C905   1.413       .  A
C905        C907   1.405       .  A
C905        C906   1.410       .  A
C906        H913   1.084       .  S
C907        C908   1.403       .  A
C907        H914   1.083       .  S
C908        C909   1.406       .  A
C908        H915   1.083       .  S
C909        C910   1.408       .  A
C910        H916   1.084       .  S
C917        C918   1.404   1_545  A
C917        C922   1.404       .  A
C918        C919   1.400       .  A
C918        H927   1.083       .  S
C919        C920   1.405   1_565  A
C919        H928   1.084       .  S
C920        C926   1.405       .  A
C920        C921   1.413       .  A
C921        C923   1.400       .  A
C921        C922   1.399       .  A
C922        H929   1.085       .  S
C923        C924   1.394       .  A
C923        H930   1.084       .  S
C924        C925   1.405       .  A
C924        H931   1.083       .  S
C925        C926   1.408       .  A
C926        H932   1.084   1_545  S
C933        C934   1.402       .  A
C933        C938   1.404       .  A
C934        C935   1.399       .  A
C934        H943   1.083       .  S
C935        C936   1.405       .  A
C935        H944   1.084       .  S
C936        C942   1.403       .  A
C936        C937   1.413       .  A
C937        C939   1.402   1_545  A
C937        C938   1.402       .  A
C938        H945   1.085       .  S
C939        C940   1.397       .  A
C939        H946   1.084       .  S
C940        C941   1.405   1_565  A
C940        H947   1.083       .  S
C941        C942   1.410       .  A
C942        H948   1.084       .  S
C949        C950   1.408       .  A
C949        C954   1.406       .  A
C950        C951   1.401       .  A
C950        H959   1.083       .  S
C951        C952   1.403       .  A
C951        H960   1.083       .  S
C952        C958   1.409       .  A
C952        C953   1.414       .  A
C953        C955   1.399       .  A
C953        C954   1.402       .  A
C954        H961   1.084       .  S
C955        C956   1.393       .  A
C955        H962   1.084       .  S
C956        C957   1.406       .  A
C956        H963   1.083       .  S
C957        C958   1.407       .  A
C958        H964   1.084       .  S
C965        C966   1.404       .  A
C965        C970   1.403       .  A
C966        C967   1.400       .  A
C966        H975   1.083       .  S
C967        C968   1.404       .  A
C967        H976   1.083       .  S
C968        C974   1.405       .  A
C968        C969   1.414       .  A
C969        C971   1.399       .  A
C969        C970   1.400       .  A
C970        H977   1.085       .  S
C971        C972   1.394       .  A
C971        H978   1.084       .  S
C972        C973   1.408       .  A
C972        H979   1.083       .  S
C973        C974   1.409       .  A
C974        H980   1.084       .  S
C981        C982   1.403       .  A
C981        C986   1.405       .  A
C982        C983   1.399       .  A
C982        H991   1.083       .  S
C983        C984   1.404       .  A
C983        H992   1.084       .  S
C984        C990   1.399       .  A
C984        C985   1.412       .  A
C985        C987   1.402       .  A
C985        C986   1.393       .  A
C986        H993   1.085       .  S
C987        C988   1.392       .  A
C987        H994   1.084       .  S
C988        C989   1.401       .  A
C988        H995   1.083   1_455  S
C989        C990   1.405       .  A
C990        H996   1.085       .  S
C997        C998   1.407       .  A
C997       C1002   1.407       .  A
C998        C999   1.399       .  A
C998       H1007   1.083       .  S
C999       C1000   1.403       .  A
C999       H1008   1.084       .  S
C1000      C1006   1.405       .  A
C1000      C1001   1.413       .  A
C1001      C1003   1.401       .  A
C1001      C1002   1.401       .  A
C1002      H1009   1.084       .  S
C1003      C1004   1.395       .  A
C1003      H1010   1.084       .  S
C1004      C1005   1.405       .  A
C1004      H1011   1.083       .  S
C1005      C1006   1.407       .  A
C1006      H1012   1.084       .  S
C1013      C1014   1.405       .  A
C1013      C1018   1.408       .  A
C1014      C1015   1.395       .  A
C1014      H1023   1.083       .  S
C1015      C1016   1.401       .  A
C1015      H1024   1.084       .  S
C1016      C1022   1.401       .  A
C1016      C1017   1.413       .  A
C1017      C1019   1.403       .  A
C1017      C1018   1.404       .  A
C1018      H1025   1.084       .  S
C1019      C1020   1.399       .  A
C1019      H1026   1.084       .  S
C1020      C1021   1.407       .  A
C1020      H1027   1.083       .  S
C1021      C1022   1.406       .  A
C1022      H1028   1.084       .  S
C1029      C1030   1.401       .  A
C1029      C1034   1.404   1_455  A
C1030      C1031   1.393       .  A
C1030      H1039   1.084       .  S
C1031      C1032   1.401       .  A
C1031      H1040   1.084       .  S
C1032      C1038   1.397       .  A
C1032      C1033   1.414   1_455  A
C1033      C1035   1.404       .  A
C1033      C1034   1.404       .  A
C1034      H1041   1.084       .  S
C1035      C1036   1.400       .  A
C1035      H1042   1.084       .  S
C1036      C1037   1.405       .  A
C1036      H1043   1.083       .  S
C1037      C1038   1.405   1_655  A
C1038      H1044   1.084       .  S
C1045      C1046   1.405       .  A
C1045      C1050   1.408       .  A
C1046      C1047   1.400       .  A
C1046      H1055   1.083       .  S
C1047      C1048   1.404       .  A
C1047      H1056   1.083       .  S
C1048      C1054   1.403       .  A
C1048      C1049   1.411       .  A
C1049      C1051   1.400       .  A
C1049      C1050   1.397       .  A
C1050      H1057   1.084       .  S
C1051      C1052   1.393       .  A
C1051      H1058   1.084       .  S
C1052      C1053   1.405       .  A
C1052      H1059   1.083   1_565  S
C1053      C1054   1.409       .  A
C1054      H1060   1.084       .  S
C1061      C1062   1.409       .  A
C1061      C1066   1.407       .  A
C1062      C1063   1.392       .  A
C1062      H1071   1.083       .  S
C1063      C1064   1.398       .  A
C1063      H1072   1.084       .  S
C1064      C1070   1.400       .  A
C1064      C1065   1.414       .  A
C1065      C1067   1.402       .  A
C1065      C1066   1.406       .  A
C1066      H1073   1.084       .  S
C1067      C1068   1.399       .  A
C1067      H1074   1.084       .  S
C1068      C1069   1.407       .  A
C1068      H1075   1.083       .  S
C1069      C1070   1.405       .  A
C1070      H1076   1.084       .  S
C1077      C1078   1.407       .  A
C1077      C1082   1.410       .  A
C1078      C1079   1.399       .  A
C1078      H1087   1.083       .  S
C1079      C1080   1.403       .  A
C1079      H1088   1.084       .  S
C1080      C1086   1.405       .  A
C1080      C1081   1.411       .  A
C1081      C1083   1.403       .  A
C1081      C1082   1.406       .  A
C1082      H1089   1.084       .  S
C1083      C1084   1.399       .  A
C1083      H1090   1.084       .  S
C1084      C1085   1.407       .  A
C1084      H1091   1.083       .  S
C1085      C1086   1.411       .  A
C1086      H1092   1.084       .  S
C1093      C1094   1.406       .  A
C1093      C1098   1.410   1_455  A
C1094      C1095   1.397       .  A
C1094      H1103   1.083       .  S
C1095      C1096   1.402       .  A
C1095      H1104   1.084       .  S
C1096      C1102   1.403       .  A
C1096      C1097   1.414   1_455  A
C1097      C1099   1.406       .  A
C1097      C1098   1.407       .  A
C1098      H1105   1.084       .  S
C1099      C1100   1.402       .  A
C1099      H1106   1.083       .  S
C1100      C1101   1.402       .  A
C1100      H1107   1.083       .  S
C1101      C1102   1.403   1_655  A
C1102      H1108   1.085       .  S
C1109      C1110   1.409       .  A
C1109      C1114   1.403       .  A
C1110      C1111   1.391       .  A
C1110      H1119   1.083       .  S
C1111      C1112   1.397       .  A
C1111      H1120   1.084       .  S
C1112      C1118   1.402       .  A
C1112      C1113   1.416       .  A
C1113      C1115   1.399       .  A
C1113      C1114   1.406       .  A
C1114      H1121   1.084       .  S
C1115      C1116   1.396       .  A
C1115      H1122   1.084       .  S
C1116      C1117   1.410       .  A
C1116      H1123   1.083       .  S
C1117      C1118   1.402       .  A
C1118      H1124   1.084       .  S
C1125      C1126   1.409       .  A
C1125      C1130   1.410       .  A
C1126      C1127   1.399       .  A
C1126      H1135   1.083       .  S
C1127      C1128   1.402       .  A
C1127      H1136   1.084       .  S
C1128      C1134   1.409       .  A
C1128      C1129   1.414       .  A
C1129      C1131   1.403       .  A
C1129      C1130   1.410       .  A
C1130      H1137   1.084       .  S
C1131      C1132   1.400       .  A
C1131      H1138   1.084       .  S
C1132      C1133   1.408       .  A
C1132      H1139   1.083       .  S
C1133      C1134   1.410       .  A
C1134      H1140   1.084       .  S
C1141      C1142   1.402       .  A
C1141      C1146   1.403       .  A
C1142      C1143   1.395       .  A
C1142      H1151   1.083       .  S
C1143      C1144   1.402       .  A
C1143      H1152   1.084       .  S
C1144      C1150   1.398       .  A
C1144      C1145   1.414       .  A
C1145      C1147   1.402       .  A
C1145      C1146   1.398       .  A
C1146      H1153   1.085       .  S
C1147      C1148   1.396   1_565  A
C1147      H1154   1.084   1_565  S
C1148      C1149   1.403   1_545  A
C1148      H1155   1.083       .  S
C1149      C1150   1.403       .  A
C1150      H1156   1.085       .  S
C1157      C1158   1.408       .  A
C1157      C1162   1.405       .  A
C1158      C1159   1.393       .  A
C1158      H1167   1.083       .  S
C1159      C1160   1.399       .  A
C1159      H1168   1.084       .  S
C1160      C1166   1.400       .  A
C1160      C1161   1.414       .  A
C1161      C1163   1.399       .  A
C1161      C1162   1.401       .  A
C1162      H1169   1.084       .  S
C1163      C1164   1.394       .  A
C1163      H1170   1.084       .  S
C1164      C1165   1.408       .  A
C1164      H1171   1.083       .  S
C1165      C1166   1.404       .  A
C1166      H1172   1.084       .  S
C1173      C1174   1.404       .  A
C1173      C1178   1.407       .  A
C1174      C1175   1.396       .  A
C1174      H1183   1.083       .  S
C1175      C1176   1.402       .  A
C1175      H1184   1.084       .  S
C1176      C1182   1.400       .  A
C1176      C1177   1.413       .  A
C1177      C1179   1.404       .  A
C1177      C1178   1.402       .  A
C1178      H1185   1.084       .  S
C1179      C1180   1.398       .  A
C1179      H1186   1.084       .  S
C1180      C1181   1.403       .  A
C1180      H1187   1.083       .  S
C1181      C1182   1.404       .  A
C1182      H1188   1.085       .  S
C1189      C1190   1.408       .  A
C1189      C1194   1.410       .  A
C1190      C1191   1.394       .  A
C1190      H1199   1.083       .  S
C1191      C1192   1.399       .  A
C1191      H1200   1.084       .  S
C1192      C1198   1.403       .  A
C1192      C1193   1.413       .  A
C1193      C1195   1.404       .  A
C1193      C1194   1.409       .  A
C1194      H1201   1.084       .  S
C1195      C1196   1.402       .  A
C1195      H1202   1.083       .  S
C1196      C1197   1.407       .  A
C1196      H1203   1.083       .  S
C1197      C1198   1.407       .  A
C1198      H1204   1.084       .  S
C1205      C1206   1.407   1_565  A
C1205      C1210   1.407       .  A
C1206      C1207   1.395       .  A
C1206      H1215   1.083       .  S
C1207      C1208   1.400       .  A
C1207      H1216   1.084       .  S
C1208      C1214   1.403       .  A
C1208      C1209   1.414   1_545  A
C1209      C1211   1.403       .  A
C1209      C1210   1.408       .  A
C1210      H1217   1.084       .  S
C1211      C1212   1.400       .  A
C1211      H1218   1.084       .  S
C1212      C1213   1.407       .  A
C1212      H1219   1.083       .  S
C1213      C1214   1.405   1_565  A
C1214      H1220   1.084       .  S
C1221      C1222   1.401       .  A
C1221      C1226   1.406       .  A
C1222      C1223   1.393       .  A
C1222      H1231   1.083       .  S
C1223      C1224   1.401       .  A
C1223      H1232   1.084       .  S
C1224      C1230   1.396   1_545  A
C1224      C1225   1.413       .  A
C1225      C1227   1.405       .  A
C1225      C1226   1.402       .  A
C1226      H1233   1.085       .  S
C1227      C1228   1.400   1_545  A
C1227      H1234   1.083       .  S
C1228      C1229   1.403       .  A
C1228      H1235   1.083       .  S
C1229      C1230   1.404       .  A
C1230      H1236   1.085       .  S
C1237      C1238   1.404       .  A
C1237      C1242   1.411       .  A
C1238      C1239   1.399       .  A
C1238      H1247   1.083       .  S
C1239      C1240   1.405       .  A
C1239      H1248   1.084       .  S
C1240      C1246   1.399       .  A
C1240      C1241   1.409       .  A
C1241      C1243   1.404       .  A
C1241      C1242   1.397       .  A
C1242      H1249   1.084       .  S
C1243      C1244   1.396       .  A
C1243      H1250   1.084       .  S
C1244      C1245   1.403       .  A
C1244      H1251   1.083       .  S
C1245      C1246   1.411       .  A
C1246      H1252   1.084       .  S
C1253      C1254   1.406       .  A
C1253      C1258   1.402       .  A
C1254      C1255   1.395       .  A
C1254      H1263   1.083       .  S
C1255      C1256   1.400       .  A
C1255      H1264   1.084       .  S
C1256      C1262   1.403       .  A
C1256      C1257   1.416       .  A
C1257      C1259   1.398       .  A
C1257      C1258   1.401       .  A
C1258      H1265   1.085       .  S
C1259      C1260   1.393       .  A
C1259      H1266   1.084       .  S
C1260      C1261   1.408       .  A
C1260      H1267   1.083       .  S
C1261      C1262   1.403       .  A
C1262      H1268   1.084       .  S
C1269      C1270   1.405       .  A
C1269      C1274   1.407       .  A
C1270      C1271   1.395       .  A
C1270      H1279   1.083       .  S
C1271      C1272   1.401       .  A
C1271      H1280   1.084       .  S
C1272      C1278   1.399       .  A
C1272      C1273   1.412       .  A
C1273      C1275   1.402       .  A
C1273      C1274   1.399       .  A
C1274      H1281   1.084       .  S
C1275      C1276   1.396       .  A
C1275      H1282   1.084       .  S
C1276      C1277   1.405       .  A
C1276      H1283   1.083       .  S
C1277      C1278   1.407       .  A
C1278      H1284   1.084       .  S
C1285      C1286   1.404       .  A
C1285      C1290   1.409       .  A
C1286      C1287   1.399       .  A
C1286      H1295   1.083       .  S
C1287      C1288   1.404       .  A
C1287      H1296   1.084       .  S
C1288      C1294   1.401       .  A
C1288      C1289   1.412       .  A
C1289      C1291   1.405       .  A
C1289      C1290   1.402       .  A
C1290      H1297   1.084       .  S
C1291      C1292   1.399       .  A
C1291      H1298   1.084       .  S
C1292      C1293   1.403       .  A
C1292      H1299   1.083       .  S
C1293      C1294   1.407       .  A
C1294      H1300   1.085       .  S
C1301      C1302   1.405       .  A
C1301      C1306   1.401       .  A
C1302      C1303   1.393       .  A
C1302      H1311   1.083       .  S
C1303      C1304   1.399       .  A
C1303      H1312   1.084       .  S
C1304      C1310   1.400       .  A
C1304      C1305   1.416       .  A
C1305      C1307   1.400       .  A
C1305      C1306   1.399       .  A
C1306      H1313   1.085       .  S
C1307      C1308   1.393       .  A
C1307      H1314   1.084       .  S
C1308      C1309   1.404       .  A
C1308      H1315   1.084       .  S
C1309      C1310   1.399       .  A
C1310      H1316   1.085       .  S
C1317      C1318   1.408       .  A
C1317      C1322   1.408       .  A
C1318      C1319   1.397       .  A
C1318      H1327   1.083       .  S
C1319      C1320   1.401       .  A
C1319      H1328   1.084       .  S
C1320      C1326   1.406       .  A
C1320      C1321   1.414       .  A
C1321      C1323   1.401       .  A
C1321      C1322   1.406       .  A
C1322      H1329   1.084       .  S
C1323      C1324   1.397       .  A
C1323      H1330   1.084       .  S
C1324      C1325   1.407       .  A
C1324      H1331   1.083       .  S
C1325      C1326   1.405       .  A
C1326      H1332   1.084       .  S
C1333      C1334   1.405       .  A
C1333      C1338   1.403       .  A
C1334      C1335   1.401       .  A
C1334      H1343   1.083       .  S
C1335      C1336   1.405       .  A
C1335      H1344   1.083       .  S
C1336      C1342   1.407       .  A
C1336      C1337   1.414       .  A
C1337      C1339   1.399       .  A
C1337      C1338   1.399       .  A
C1338      H1345   1.085       .  S
C1339      C1340   1.393       .  A
C1339      H1346   1.084       .  S
C1340      C1341   1.404       .  A
C1340      H1347   1.083       .  S
C1341      C1342   1.407       .  A
C1342      H1348   1.084       .  S
C1349      C1350   1.404       .  A
C1349      C1354   1.408       .  A
C1350      C1351   1.395       .  A
C1350      H1359   1.083       .  S
C1351      C1352   1.402       .  A
C1351      H1360   1.084       .  S
C1352      C1358   1.397       .  A
C1352      C1353   1.411       .  A
C1353      C1355   1.402       .  A
C1353      C1354   1.398       .  A
C1354      H1361   1.084       .  S
C1355      C1356   1.396       .  A
C1355      H1362   1.084       .  S
C1356      C1357   1.405       .  A
C1356      H1363   1.083       .  S
C1357      C1358   1.408       .  A
C1358      H1364   1.084       .  S
C1365      C1366   1.401       .  A
C1365      C1370   1.400       .  A
C1366      C1367   1.393       .  A
C1366      H1375   1.083       .  S
C1367      C1368   1.402   1_554  A
C1367      H1376   1.084   1_554  S
C1368      C1374   1.394       .  A
C1368      C1369   1.414   1_556  A
C1369      C1371   1.401       .  A
C1369      C1370   1.395       .  A
C1370      H1377   1.085       .  S
C1371      C1372   1.395   1_554  A
C1371      H1378   1.084       .  S
C1372      C1373   1.403       .  A
C1372      H1379   1.083       .  S
C1373      C1374   1.403       .  A
C1374      H1380   1.085       .  S
C1381      C1382   1.405       .  A
C1381      C1386   1.409       .  A
C1382      C1383   1.395       .  A
C1382      H1391   1.083       .  S
C1383      C1384   1.401       .  A
C1383      H1392   1.084       .  S
C1384      C1390   1.400       .  A
C1384      C1385   1.411       .  A
C1385      C1387   1.404       .  A
C1385      C1386   1.404       .  A
C1386      H1393   1.084       .  S
C1387      C1388   1.400       .  A
C1387      H1394   1.084       .  S
C1388      C1389   1.406       .  A
C1388      H1395   1.083       .  S
C1389      C1390   1.408       .  A
C1390      H1396   1.084       .  S
C1397      C1398   1.406       .  A
C1397      C1402   1.407       .  A
C1398      C1399   1.396       .  A
C1398      H1407   1.083       .  S
C1399      C1400   1.400       .  A
C1399      H1408   1.084       .  S
C1400      C1406   1.405       .  A
C1400      C1401   1.414       .  A
C1401      C1403   1.402       .  A
C1401      C1402   1.408       .  A
C1402      H1409   1.084       .  S
C1403      C1404   1.399       .  A
C1403      H1410   1.084       .  S
C1404      C1405   1.409       .  A
C1404      H1411   1.083       .  S
C1405      C1406   1.407       .  A
C1406      H1412   1.084       .  S
C1413      C1414   1.407       .  A
C1413      C1418   1.407       .  A
C1414      C1415   1.394       .  A
C1414      H1423   1.083       .  S
C1415      C1416   1.400       .  A
C1415      H1424   1.084       .  S
C1416      C1422   1.399       .  A
C1416      C1417   1.413       .  A
C1417      C1419   1.402       .  A
C1417      C1418   1.402       .  A
C1418      H1425   1.084       .  S
C1419      C1420   1.397       .  A
C1419      H1426   1.084       .  S
C1420      C1421   1.406       .  A
C1420      H1427   1.083       .  S
C1421      C1422   1.406       .  A
C1422      H1428   1.084       .  S
C1429      C1430   1.405       .  A
C1429      C1434   1.405       .  A
C1430      C1431   1.394       .  A
C1430      H1439   1.083       .  S
C1431      C1432   1.400       .  A
C1431      H1440   1.084       .  S
C1432      C1438   1.399       .  A
C1432      C1433   1.414       .  A
C1433      C1435   1.401       .  A
C1433      C1434   1.400       .  A
C1434      H1441   1.084       .  S
C1435      C1436   1.395       .  A
C1435      H1442   1.084       .  S
C1436      C1437   1.406       .  A
C1436      H1443   1.083       .  S
C1437      C1438   1.403       .  A
C1438      H1444   1.084       .  S
C1445      C1446   1.405       .  A
C1445      C1450   1.408       .  A
C1446      C1447   1.400       .  A
C1446      H1455   1.083       .  S
C1447      C1448   1.404       .  A
C1447      H1456   1.084       .  S
C1448      C1454   1.403       .  A
C1448      C1449   1.413       .  A
C1449      C1451   1.403       .  A
C1449      C1450   1.401       .  A
C1450      H1457   1.084       .  S
C1451      C1452   1.396       .  A
C1451      H1458   1.084       .  S
C1452      C1453   1.404       .  A
C1452      H1459   1.083       .  S
C1453      C1454   1.408       .  A
C1454      H1460   1.085       .  S
C1461      C1462   1.407       .  A
C1461      C1466   1.399       .  A
C1462      C1463   1.395       .  A
C1462      H1471   1.083       .  S
C1463      C1464   1.399       .  A
C1463      H1472   1.084       .  S
C1464      C1470   1.402       .  A
C1464      C1465   1.417       .  A
C1465      C1467   1.397       .  A
C1465      C1466   1.398       .  A
C1466      H1473   1.085       .  S
C1467      C1468   1.390       .  A
C1467      H1474   1.084       .  S
C1468      C1469   1.406       .  A
C1468      H1475   1.083       .  S
C1469      C1470   1.400       .  A
C1470      H1476   1.084       .  S
C1477      C1478   1.406       .  A
C1477      C1482   1.406       .  A
C1478      C1479   1.395       .  A
C1478      H1487   1.083       .  S
C1479      C1480   1.400       .  A
C1479      H1488   1.084       .  S
C1480      C1486   1.404       .  A
C1480      C1481   1.414       .  A
C1481      C1483   1.402       .  A
C1481      C1482   1.408       .  A
C1482      H1489   1.084       .  S
C1483      C1484   1.400       .  A
C1483      H1490   1.084       .  S
C1484      C1485   1.409       .  A
C1484      H1491   1.083       .  S
C1485      C1486   1.407       .  A
C1486      H1492   1.084       .  S
C1493      C1494   1.402       .  A
C1493      C1498   1.403       .  A
C1494      C1495   1.392       .  A
C1494      H1503   1.083       .  S
C1495      C1496   1.400       .  A
C1495      H1504   1.084       .  S
C1496      C1502   1.393       .  A
C1496      C1497   1.414   1_455  A
C1497      C1499   1.403       .  A
C1497      C1498   1.396   1_655  A
C1498      H1505   1.085   1_455  S
C1499      C1500   1.396       .  A
C1499      H1506   1.084       .  S
C1500      C1501   1.401       .  A
C1500      H1507   1.083       .  S
C1501      C1502   1.400   1_655  A
C1502      H1508   1.085       .  S
C1509      C1510   1.404   1_455  A
C1509      C1514   1.406       .  A
C1510      C1511   1.399       .  A
C1510      H1519   1.083       .  S
C1511      C1512   1.404   1_655  A
C1511      H1520   1.084       .  S
C1512      C1518   1.404       .  A
C1512      C1513   1.413       .  A
C1513      C1515   1.403       .  A
C1513      C1514   1.404       .  A
C1514      H1521   1.085       .  S
C1515      C1516   1.399       .  A
C1515      H1522   1.084       .  S
C1516      C1517   1.406       .  A
C1516      H1523   1.083       .  S
C1517      C1518   1.409       .  A
C1518      H1524   1.084   1_455  S
C1525      C1526   1.408       .  A
C1525      C1530   1.404       .  A
C1526      C1527   1.400       .  A
C1526      H1535   1.083       .  S
C1527      C1528   1.402       .  A
C1527      H1536   1.084       .  S
C1528      C1534   1.409       .  A
C1528      C1529   1.415       .  A
C1529      C1531   1.399       .  A
C1529      C1530   1.403       .  A
C1530      H1537   1.084       .  S
C1531      C1532   1.393       .  A
C1531      H1538   1.084       .  S
C1532      C1533   1.407       .  A
C1532      H1539   1.083       .  S
C1533      C1534   1.407       .  A
C1534      H1540   1.084       .  S
C1541      C1542   1.407       .  A
C1541      C1546   1.404       .  A
C1542      C1543   1.398       .  A
C1542      H1551   1.083       .  S
C1543      C1544   1.401       .  A
C1543      H1552   1.084       .  S
C1544      C1550   1.407       .  A
C1544      C1545   1.415       .  A
C1545      C1547   1.399       .  A
C1545      C1546   1.403       .  A
C1546      H1553   1.084       .  S
C1547      C1548   1.394       .  A
C1547      H1554   1.084       .  S
C1548      C1549   1.409       .  A
C1548      H1555   1.083       .  S
C1549      C1550   1.407       .  A
C1550      H1556   1.084       .  S
C1557      C1558   1.403       .  A
C1557      C1562   1.406       .  A
C1558      C1559   1.394       .  A
C1558      H1567   1.083       .  S
C1559      C1560   1.401       .  A
C1559      H1568   1.084       .  S
C1560      C1566   1.397       .  A
C1560      C1561   1.413       .  A
C1561      C1563   1.404       .  A
C1561      C1562   1.401       .  A
C1562      H1569   1.084       .  S
C1563      C1564   1.398       .  A
C1563      H1570   1.084       .  S
C1564      C1565   1.402       .  A
C1564      H1571   1.083       .  S
C1565      C1566   1.403       .  A
C1566      H1572   1.085       .  S
C1573      C1574   1.409       .  A
C1573      C1578   1.403       .  A
C1574      C1575   1.400       .  A
C1574      H1583   1.083       .  S
C1575      C1576   1.402       .  A
C1575      H1584   1.084       .  S
C1576      C1582   1.411       .  A
C1576      C1577   1.416       .  A
C1577      C1579   1.397       .  A
C1577      C1578   1.403       .  A
C1578      H1585   1.084       .  S
C1579      C1580   1.392       .  A
C1579      H1586   1.084       .  S
C1580      C1581   1.407       .  A
C1580      H1587   1.083       .  S
C1581      C1582   1.405       .  A
C1582      H1588   1.084       .  S
C1589      C1590   1.404       .  A
C1589      C1594   1.409       .  A
C1590      C1591   1.396       .  A
C1590      H1599   1.083       .  S
C1591      C1592   1.403       .  A
C1591      H1600   1.084       .  S
C1592      C1598   1.399       .  A
C1592      C1593   1.411       .  A
C1593      C1595   1.405       .  A
C1593      C1594   1.403       .  A
C1594      H1601   1.084       .  S
C1595      C1596   1.400       .  A
C1595      H1602   1.084       .  S
C1596      C1597   1.405       .  A
C1596      H1603   1.083       .  S
C1597      C1598   1.410       .  A
C1598      H1604   1.084       .  S
C1605      C1606   1.406       .  A
C1605      C1610   1.408       .  A
C1606      C1607   1.402       .  A
C1606      H1615   1.083       .  S
C1607      C1608   1.405       .  A
C1607      H1616   1.083       .  S
C1608      C1614   1.406       .  A
C1608      C1609   1.411       .  A
C1609      C1611   1.400       .  A
C1609      C1610   1.398       .  A
C1610      H1617   1.084       .  S
C1611      C1612   1.393       .  A
C1611      H1618   1.084       .  S
C1612      C1613   1.406       .  A
C1612      H1619   1.083       .  S
C1613      C1614   1.410       .  A
C1614      H1620   1.084       .  S
C1621      C1622   1.403       .  A
C1621      C1626   1.403       .  A
C1622      C1623   1.396       .  A
C1622      H1631   1.083       .  S
C1623      C1624   1.402       .  A
C1623      H1632   1.084       .  S
C1624      C1630   1.402       .  A
C1624      C1625   1.415       .  A
C1625      C1627   1.401       .  A
C1625      C1626   1.400       .  A
C1626      H1633   1.085       .  S
C1627      C1628   1.395       .  A
C1627      H1634   1.084       .  S
C1628      C1629   1.403       .  A
C1628      H1635   1.083       .  S
C1629      C1630   1.402       .  A
C1630      H1636   1.085       .  S
C1637      C1638   1.406       .  A
C1637      C1642   1.412       .  A
C1638      C1639   1.403       .  A
C1638      H1647   1.083       .  S
C1639      C1640   1.406       .  A
C1639      H1648   1.083       .  S
C1640      C1646   1.408       .  A
C1640      C1641   1.411       .  A
C1641      C1643   1.403   1_565  A
C1641      C1642   1.404       .  A
C1642      H1649   1.084       .  S
C1643      C1644   1.398       .  A
C1643      H1650   1.084       .  S
C1644      C1645   1.406   1_545  A
C1644      H1651   1.083       .  S
C1645      C1646   1.413       .  A
C1646      H1652   1.084       .  S
C1653      C1654   1.409       .  A
C1653      C1658   1.411       .  A
C1654      C1655   1.400       .  A
C1654      H1663   1.083       .  S
C1655      C1656   1.402       .  A
C1655      H1664   1.084       .  S
C1656      C1662   1.411       .  A
C1656      C1657   1.414       .  A
C1657      C1659   1.404       .  A
C1657      C1658   1.413       .  A
C1658      H1665   1.084       .  S
C1659      C1660   1.402       .  A
C1659      H1666   1.083       .  S
C1660      C1661   1.408       .  A
C1660      H1667   1.083       .  S
C1661      C1662   1.410       .  A
C1662      H1668   1.084       .  S
C1669      C1670   1.407       .  A
C1669      C1674   1.408       .  A
C1670      C1671   1.397       .  A
C1670      H1679   1.083       .  S
C1671      C1672   1.402       .  A
C1671      H1680   1.084       .  S
C1672      C1678   1.403       .  A
C1672      C1673   1.412       .  A
C1673      C1675   1.401       .  A
C1673      C1674   1.402       .  A
C1674      H1681   1.084       .  S
C1675      C1676   1.397       .  A
C1675      H1682   1.084       .  S
C1676      C1677   1.407       .  A
C1676      H1683   1.083       .  S
C1677      C1678   1.409       .  A
C1678      H1684   1.084       .  S
C1685      C1686   1.405       .  A
C1685      C1690   1.409       .  A
C1686      C1687   1.401       .  A
C1686      H1695   1.083       .  S
C1687      C1688   1.405       .  A
C1687      H1696   1.084       .  S
C1688      C1694   1.407       .  A
C1688      C1689   1.413       .  A
C1689      C1691   1.404       .  A
C1689      C1690   1.404       .  A
C1690      H1697   1.084       .  S
C1691      C1692   1.399       .  A
C1691      H1698   1.084       .  S
C1692      C1693   1.402       .  A
C1692      H1699   1.083       .  S
C1693      C1694   1.407       .  A
C1694      H1700   1.085       .  S
C1701      C1702   1.405       .  A
C1701      C1706   1.410       .  A
C1702      C1703   1.402       .  A
C1702      H1711   1.083       .  S
C1703      C1704   1.405       .  A
C1703      H1712   1.083       .  S
C1704      C1710   1.405       .  A
C1704      C1705   1.411       .  A
C1705      C1707   1.402       .  A
C1705      C1706   1.399       .  A
C1706      H1713   1.084       .  S
C1707      C1708   1.395       .  A
C1707      H1714   1.084       .  S
C1708      C1709   1.406       .  A
C1708      H1715   1.083   1_655  S
C1709      C1710   1.411       .  A
C1710      H1716   1.084       .  S
C1717      C1718   1.409       .  A
C1717      C1722   1.409       .  A
C1718      C1719   1.392       .  A
C1718      H1727   1.083       .  S
C1719      C1720   1.397       .  A
C1719      H1728   1.084       .  S
C1720      C1726   1.400       .  A
C1720      C1721   1.414       .  A
C1721      C1723   1.405       .  A
C1721      C1722   1.409       .  A
C1722      H1729   1.084       .  S
C1723      C1724   1.402       .  A
C1723      H1730   1.083       .  S
C1724      C1725   1.406       .  A
C1724      H1731   1.083       .  S
C1725      C1726   1.403       .  A
C1726      H1732   1.085       .  S
C1733      C1734   1.407       .  A
C1733      C1738   1.406       .  A
C1734      C1735   1.399       .  A
C1734      H1743   1.083       .  S
C1735      C1736   1.402       .  A
C1735      H1744   1.084       .  S
C1736      C1742   1.405       .  A
C1736      C1737   1.413       .  A
C1737      C1739   1.399       .  A
C1737      C1738   1.400       .  A
C1738      H1745   1.084       .  S
C1739      C1740   1.393       .  A
C1739      H1746   1.084       .  S
C1740      C1741   1.407       .  A
C1740      H1747   1.083       .  S
C1741      C1742   1.408       .  A
C1742      H1748   1.084       .  S
C1749      C1750   1.406       .  A
C1749      C1754   1.409       .  A
C1750      C1751   1.393       .  A
C1750      H1759   1.083       .  S
C1751      C1752   1.400       .  A
C1751      H1760   1.084       .  S
C1752      C1758   1.397       .  A
C1752      C1753   1.412       .  A
C1753      C1755   1.404       .  A
C1753      C1754   1.404       .  A
C1754      H1761   1.084       .  S
C1755      C1756   1.401       .  A
C1755      H1762   1.084       .  S
C1756      C1757   1.406       .  A
C1756      H1763   1.083       .  S
C1757      C1758   1.408       .  A
C1758      H1764   1.084       .  S
C1765      C1766   1.407       .  A
C1765      C1770   1.405       .  A
C1766      C1767   1.397       .  A
C1766      H1775   1.083       .  S
C1767      C1768   1.401       .  A
C1767      H1776   1.084       .  S
C1768      C1774   1.406       .  A
C1768      C1769   1.415       .  A
C1769      C1771   1.400       .  A
C1769      C1770   1.406       .  A
C1770      H1777   1.084       .  S
C1771      C1772   1.396       .  A
C1771      H1778   1.084       .  S
C1772      C1773   1.409       .  A
C1772      H1779   1.083       .  S
C1773      C1774   1.406       .  A
C1774      H1780   1.084       .  S
C1781      C1782   1.404       .  A
C1781      C1786   1.408   1_545  A
C1782      C1783   1.399       .  A
C1782      H1791   1.083       .  S
C1783      C1784   1.404       .  A
C1783      H1792   1.084       .  S
C1784      C1790   1.404   1_545  A
C1784      C1785   1.413   1_545  A
C1785      C1787   1.404       .  A
C1785      C1786   1.405       .  A
C1786      H1793   1.085       .  S
C1787      C1788   1.399       .  A
C1787      H1794   1.084       .  S
C1788      C1789   1.405       .  A
C1788      H1795   1.083       .  S
C1789      C1790   1.409       .  A
C1790      H1796   1.084   1_565  S
C1797      C1798   1.407       .  A
C1797      C1802   1.409       .  A
C1798      C1799   1.399       .  A
C1798      H1807   1.083       .  S
C1799      C1800   1.403       .  A
C1799      H1808   1.084       .  S
C1800      C1806   1.405       .  A
C1800      C1801   1.412       .  A
C1801      C1803   1.402       .  A
C1801      C1802   1.404       .  A
C1802      H1809   1.084       .  S
C1803      C1804   1.397       .  A
C1803      H1810   1.084       .  S
C1804      C1805   1.407       .  A
C1804      H1811   1.083       .  S
C1805      C1806   1.409       .  A
C1806      H1812   1.084       .  S
C1813      C1814   1.408       .  A
C1813      C1818   1.409       .  A
C1814      C1815   1.403       .  A
C1814      H1823   1.083       .  S
C1815      C1816   1.405       .  A
C1815      H1824   1.083       .  S
C1816      C1822   1.412       .  A
C1816      C1817   1.413       .  A
C1817      C1819   1.401       .  A
C1817      C1818   1.405       .  A
C1818      H1825   1.084       .  S
C1819      C1820   1.396       .  A
C1819      H1826   1.084       .  S
C1820      C1821   1.407       .  A
C1820      H1827   1.083       .  S
C1821      C1822   1.410       .  A
C1822      H1828   1.084       .  S
C1829      C1830   1.405       .  A
C1829      C1834   1.410       .  A
C1830      C1831   1.396       .  A
C1830      H1839   1.083       .  S
C1831      C1832   1.402       .  A
C1831      H1840   1.084       .  S
C1832      C1838   1.399       .  A
C1832      C1833   1.411       .  A
C1833      C1835   1.404       .  A
C1833      C1834   1.402       .  A
C1834      H1841   1.084       .  S
C1835      C1836   1.399       .  A
C1835      H1842   1.084       .  S
C1836      C1837   1.404       .  A
C1836      H1843   1.083       .  S
C1837      C1838   1.407       .  A
C1838      H1844   1.084       .  S
C1845      C1846   1.403       .  A
C1845      C1850   1.405       .  A
C1846      C1847   1.399   1_545  A
C1846      H1855   1.083       .  S
C1847      C1848   1.404       .  A
C1847      H1856   1.084       .  S
C1848      C1854   1.402       .  A
C1848      C1849   1.413       .  A
C1849      C1851   1.403       .  A
C1849      C1850   1.400   1_565  A
C1850      H1857   1.085       .  S
C1851      C1852   1.397       .  A
C1851      H1858   1.084       .  S
C1852      C1853   1.403       .  A
C1852      H1859   1.083       .  S
C1853      C1854   1.406       .  A
C1854      H1860   1.084       .  S
C1861      C1862   1.405       .  A
C1861      C1866   1.408       .  A
C1862      C1863   1.397       .  A
C1862      H1871   1.083       .  S
C1863      C1864   1.402       .  A
C1863      H1872   1.084       .  S
C1864      C1870   1.403       .  A
C1864      C1865   1.412       .  A
C1865      C1867   1.402       .  A
C1865      C1866   1.403       .  A
C1866      H1873   1.084       .  S
C1867      C1868   1.398       .  A
C1867      H1874   1.084       .  S
C1868      C1869   1.407       .  A
C1868      H1875   1.083       .  S
C1869      C1870   1.408       .  A
C1870      H1876   1.084       .  S
C1877      C1878   1.405       .  A
C1877      C1882   1.409       .  A
C1878      C1879   1.399       .  A
C1878      H1887   1.083       .  S
C1879      C1880   1.403       .  A
C1879      H1888   1.084       .  S
C1880      C1886   1.402       .  A
C1880      C1881   1.411       .  A
C1881      C1883   1.402       .  A
C1881      C1882   1.400       .  A
C1882      H1889   1.084       .  S
C1883      C1884   1.396       .  A
C1883      H1890   1.084       .  S
C1884      C1885   1.405       .  A
C1884      H1891   1.083       .  S
C1885      C1886   1.409       .  A
C1886      H1892   1.084       .  S
C1893      C1894   1.403       .  A
C1893      C1898   1.401       .  A
C1894      C1895   1.392       .  A
C1894      H1903   1.084       .  S
C1895      C1896   1.399       .  A
C1895      H1904   1.084   1_455  S
C1896      C1902   1.398       .  A
C1896      C1897   1.416       .  A
C1897      C1899   1.401       .  A
C1897      C1898   1.403       .  A
C1898      H1905   1.084       .  S
C1899      C1900   1.397       .  A
C1899      H1906   1.084       .  S
C1900      C1901   1.406       .  A
C1900      H1907   1.083       .  S
C1901      C1902   1.402       .  A
C1902      H1908   1.085   1_455  S
C1909      C1910   1.402   1_455  A
C1909      C1914   1.405       .  A
C1910      C1911   1.396       .  A
C1910      H1919   1.083       .  S
C1911      C1912   1.403   1_655  A
C1911      H1920   1.084       .  S
C1912      C1918   1.397       .  A
C1912      C1913   1.412       .  A
C1913      C1915   1.402       .  A
C1913      C1914   1.397       .  A
C1914      H1921   1.085       .  S
C1915      C1916   1.396       .  A
C1915      H1922   1.084       .  S
C1916      C1917   1.404       .  A
C1916      H1923   1.083       .  S
C1917      C1918   1.407       .  A
C1918      H1924   1.084       .  S
C1925      C1926   1.408       .  A
C1925      C1930   1.400       .  A
C1926      C1927   1.399       .  A
C1926      H1935   1.083       .  S
C1927      C1928   1.402       .  A
C1927      H1936   1.084       .  S
C1928      C1934   1.409       .  A
C1928      C1929   1.417       .  A
C1929      C1931   1.397       .  A
C1929      C1930   1.401       .  A
C1930      H1937   1.085       .  S
C1931      C1932   1.390       .  A
C1931      H1938   1.084       .  S
C1932      C1933   1.406       .  A
C1932      H1939   1.084       .  S
C1933      C1934   1.404       .  A
C1934      H1940   1.084       .  S
C1941      C1942   1.407       .  A
C1941      C1946   1.409       .  A
C1942      C1943   1.394       .  A
C1942      H1951   1.083       .  S
C1943      C1944   1.400       .  A
C1943      H1952   1.084       .  S
C1944      C1950   1.403       .  A
C1944      C1945   1.414       .  A
C1945      C1947   1.405       .  A
C1945      C1946   1.410       .  A
C1946      H1953   1.084       .  S
C1947      C1948   1.403       .  A
C1947      H1954   1.083       .  S
C1948      C1949   1.406       .  A
C1948      H1955   1.083       .  S
C1949      C1950   1.406       .  A
C1950      H1956   1.084       .  S
C1957      C1958   1.407       .  A
C1957      C1962   1.407       .  A
C1958      C1959   1.395       .  A
C1958      H1967   1.083       .  S
C1959      C1960   1.400       .  A
C1959      H1968   1.084       .  S
C1960      C1966   1.400       .  A
C1960      C1961   1.413       .  A
C1961      C1963   1.402       .  A
C1961      C1962   1.403       .  A
C1962      H1969   1.084       .  S
C1963      C1964   1.397       .  A
C1963      H1970   1.084       .  S
C1964      C1965   1.407       .  A
C1964      H1971   1.083       .  S
C1965      C1966   1.407       .  A
C1966      H1972   1.084       .  S
C1973      C1974   1.407       .  A
C1973      C1978   1.405       .  A
C1974      C1975   1.396       .  A
C1974      H1983   1.083       .  S
C1975      C1976   1.401       .  A
C1975      H1984   1.084       .  S
C1976      C1982   1.404       .  A
C1976      C1977   1.414       .  A
C1977      C1979   1.400       .  A
C1977      C1978   1.404       .  A
C1978      H1985   1.084       .  S
C1979      C1980   1.395       .  A
C1979      H1986   1.084       .  S
C1980      C1981   1.408       .  A
C1980      H1987   1.083       .  S
C1981      C1982   1.406       .  A
C1982      H1988   1.084       .  S
C1989      C1990   1.406       .  A
C1989      C1994   1.406       .  A
C1990      C1991   1.394       .  A
C1990      H1999   1.083       .  S
C1991      C1992   1.400       .  A
C1991      H2000   1.084       .  S
C1992      C1998   1.402       .  A
C1992      C1993   1.415       .  A
C1993      C1995   1.402       .  A
C1993      C1994   1.406       .  A
C1994      H2001   1.084       .  S
C1995      C1996   1.398       .  A
C1995      H2002   1.084       .  S
C1996      C1997   1.406       .  A
C1996      H2003   1.083       .  S
C1997      C1998   1.405       .  A
C1998      H2004   1.085       .  S
C2005      C2006   1.404       .  A
C2005      C2010   1.409       .  A
C2006      C2007   1.393       .  A
C2006      H2015   1.083       .  S
C2007      C2008   1.401       .  A
C2007      H2016   1.084       .  S
C2008      C2014   1.397       .  A
C2008      C2009   1.412       .  A
C2009      C2011   1.406       .  A
C2009      C2010   1.405       .  A
C2010      H2017   1.084       .  S
C2011      C2012   1.402       .  A
C2011      H2018   1.084       .  S
C2012      C2013   1.403       .  A
C2012      H2019   1.083       .  S
C2013      C2014   1.406       .  A
C2014      H2020   1.085       .  S
C2021      C2022   1.404       .  A
C2021      C2026   1.411       .  A
C2022      C2023   1.399       .  A
C2022      H2031   1.083       .  S
C2023      C2024   1.405       .  A
C2023      H2032   1.084       .  S
C2024      C2030   1.401       .  A
C2024      C2025   1.410       .  A
C2025      C2027   1.404       .  A
C2025      C2026   1.400       .  A
C2026      H2033   1.084       .  S
C2027      C2028   1.398       .  A
C2027      H2034   1.084       .  S
C2028      C2029   1.404       .  A
C2028      H2035   1.083       .  S
C2029      C2030   1.411       .  A
C2030      H2036   1.084       .  S
C2037      C2038   1.410       .  A
C2037      C2042   1.407       .  A
C2038      C2039   1.394       .  A
C2038      H2047   1.083       .  S
C2039      C2040   1.398       .  A
C2039      H2048   1.084       .  S
C2040      C2046   1.404       .  A
C2040      C2041   1.415       .  A
C2041      C2043   1.401       .  A
C2041      C2042   1.408       .  A
C2042      H2049   1.084       .  S
C2043      C2044   1.399       .  A
C2043      H2050   1.084       .  S
C2044      C2045   1.409       .  A
C2044      H2051   1.083       .  S
C2045      C2046   1.405       .  A
C2046      H2052   1.084       .  S
C2053      C2054   1.406   1_565  A
C2053      C2058   1.410       .  A
C2054      C2055   1.394       .  A
C2054      H2063   1.083       .  S
C2055      C2056   1.400   1_545  A
C2055      H2064   1.084       .  S
C2056      C2062   1.401   1_565  A
C2056      C2057   1.413       .  A
C2057      C2059   1.406       .  A
C2057      C2058   1.409       .  A
C2058      H2065   1.084       .  S
C2059      C2060   1.403       .  A
C2059      H2066   1.083       .  S
C2060      C2061   1.406       .  A
C2060      H2067   1.083       .  S
C2061      C2062   1.407   1_565  A
C2062      H2068   1.084       .  S
C2069      C2070   1.410       .  A
C2069      C2074   1.406       .  A
C2070      C2071   1.396       .  A
C2070      H2079   1.083       .  S
C2071      C2072   1.399       .  A
C2071      H2080   1.084       .  S
C2072      C2078   1.408   1_554  A
C2072      C2073   1.416       .  A
C2073      C2075   1.401   1_554  A
C2073      C2074   1.410       .  A
C2074      H2081   1.084       .  S
C2075      C2076   1.398       .  A
C2075      H2082   1.084       .  S
C2076      C2077   1.407       .  A
C2076      H2083   1.083       .  S
C2077      C2078   1.403       .  A
C2078      H2084   1.084       .  S
C2085      C2086   1.407       .  A
C2085      C2090   1.409       .  A
C2086      C2087   1.394       .  A
C2086      H2095   1.083       .  S
C2087      C2088   1.400       .  A
C2087      H2096   1.084       .  S
C2088      C2094   1.400       .  A
C2088      C2089   1.412       .  A
C2089      C2091   1.403       .  A
C2089      C2090   1.406       .  A
C2090      H2097   1.084       .  S
C2091      C2092   1.400       .  A
C2091      H2098   1.083       .  S
C2092      C2093   1.406       .  A
C2092      H2099   1.083       .  S
C2093      C2094   1.407       .  A
C2094      H2100   1.084       .  S
C2101      C2102   1.403       .  A
C2101      C2106   1.404       .  A
C2102      C2103   1.396       .  A
C2102      H2111   1.083   1_545  S
C2103      C2104   1.402       .  A
C2103      H2112   1.084       .  S
C2104      C2110   1.399       .  A
C2104      C2105   1.414       .  A
C2105      C2107   1.402       .  A
C2105      C2106   1.398       .  A
C2106      H2113   1.085       .  S
C2107      C2108   1.396       .  A
C2107      H2114   1.084       .  S
C2108      C2109   1.403       .  A
C2108      H2115   1.083       .  S
C2109      C2110   1.403       .  A
C2110      H2116   1.085       .  S
C2117      C2118   1.407       .  A
C2117      C2122   1.406       .  A
C2118      C2119   1.394       .  A
C2118      H2127   1.083       .  S
C2119      C2120   1.399       .  A
C2119      H2128   1.084       .  S
C2120      C2126   1.400       .  A
C2120      C2121   1.414       .  A
C2121      C2123   1.402       .  A
C2121      C2122   1.403       .  A
C2122      H2129   1.084       .  S
C2123      C2124   1.397       .  A
C2123      H2130   1.084       .  S
C2124      C2125   1.405       .  A
C2124      H2131   1.083       .  S
C2125      C2126   1.403       .  A
C2126      H2132   1.085       .  S
C2133      C2134   1.409       .  A
C2133      C2138   1.405       .  A
C2134      C2135   1.393       .  A
C2134      H2143   1.083       .  S
C2135      C2136   1.398       .  A
C2135      H2144   1.084       .  S
C2136      C2142   1.404       .  A
C2136      C2137   1.415       .  A
C2137      C2139   1.401       .  A
C2137      C2138   1.408       .  A
C2138      H2145   1.084       .  S
C2139      C2140   1.398       .  A
C2139      H2146   1.084       .  S
C2140      C2141   1.410       .  A
C2140      H2147   1.083       .  S
C2141      C2142   1.404       .  A
C2142      H2148   1.084       .  S
C2149      C2150   1.407       .  A
C2149      C2154   1.406       .  A
C2150      C2151   1.403       .  A
C2150      H2159   1.083       .  S
C2151      C2152   1.405       .  A
C2151      H2160   1.083       .  S
C2152      C2158   1.415       .  A
C2152      C2153   1.415       .  A
C2153      C2155   1.400       .  A
C2153      C2154   1.409       .  A
C2154      H2161   1.084       .  S
C2155      C2156   1.397       .  A
C2155      H2162   1.084       .  S
C2156      C2157   1.411       .  A
C2156      H2163   1.083       .  S
C2157      C2158   1.412       .  A
C2158      H2164   1.084       .  S
C2165      C2166   1.405       .  A
C2165      C2170   1.412       .  A
C2166      C2167   1.394       .  A
C2166      H2175   1.083       .  S
C2167      C2168   1.401       .  A
C2167      H2176   1.084       .  S
C2168      C2174   1.400       .  A
C2168      C2169   1.412       .  A
C2169      C2171   1.408       .  A
C2169      C2170   1.409       .  A
C2170      H2177   1.084       .  S
C2171      C2172   1.405       .  A
C2171      H2178   1.084       .  S
C2172      C2173   1.404       .  A
C2172      H2179   1.083       .  S
C2173      C2174   1.406       .  A
C2174      H2180   1.085       .  S
C2181      C2182   1.405       .  A
C2181      C2186   1.411       .  A
C2182      C2183   1.399       .  A
C2182      H2191   1.083       .  S
C2183      C2184   1.404       .  A
C2183      H2192   1.084       .  S
C2184      C2190   1.403       .  A
C2184      C2185   1.411       .  A
C2185      C2187   1.404       .  A
C2185      C2186   1.403       .  A
C2186      H2193   1.084       .  S
C2187      C2188   1.399       .  A
C2187      H2194   1.084       .  S
C2188      C2189   1.405       .  A
C2188      H2195   1.083       .  S
C2189      C2190   1.411       .  A
C2190      H2196   1.084       .  S
C2197      C2198   1.406       .  A
C2197      C2202   1.404       .  A
C2198      C2199   1.391       .  A
C2198      H2207   1.084       .  S
C2199      C2200   1.397       .  A
C2199      H2208   1.084       .  S
C2200      C2206   1.401       .  A
C2200      C2201   1.416       .  A
C2201      C2203   1.402       .  A
C2201      C2202   1.408       .  A
C2202      H2209   1.084       .  S
C2203      C2204   1.399       .  A
C2203      H2210   1.084       .  S
C2204      C2205   1.408       .  A
C2204      H2211   1.083       .  S
C2205      C2206   1.402       .  A
C2206      H2212   1.085       .  S
C2213      C2214   1.409       .  A
C2213      C2218   1.409       .  A
C2214      C2215   1.397       .  A
C2214      H2223   1.083       .  S
C2215      C2216   1.400       .  A
C2215      H2224   1.084       .  S
C2216      C2222   1.408       .  A
C2216      C2217   1.415       .  A
C2217      C2219   1.403       .  A
C2217      C2218   1.410       .  A
C2218      H2225   1.084       .  S
C2219      C2220   1.400       .  A
C2219      H2226   1.084       .  S
C2220      C2221   1.406       .  A
C2220      H2227   1.083       .  S
C2221      C2222   1.404       .  A
C2222      H2228   1.084       .  S
C2229      C2230   1.405       .  A
C2229      C2234   1.406       .  A
C2230      C2231   1.397       .  A
C2230      H2239   1.083       .  S
C2231      C2232   1.402       .  A
C2231      H2240   1.084       .  S
C2232      C2238   1.400       .  A
C2232      C2233   1.413       .  A
C2233      C2235   1.402   1_655  A
C2233      C2234   1.399       .  A
C2234      H2241   1.084       .  S
C2235      C2236   1.396       .  A
C2235      H2242   1.084       .  S
C2236      C2237   1.403   1_455  A
C2236      H2243   1.083       .  S
C2237      C2238   1.405       .  A
C2238      H2244   1.085       .  S
C2245      C2246   1.408       .  A
C2245      C2250   1.408       .  A
C2246      C2247   1.391       .  A
C2246      H2255   1.083       .  S
C2247      C2248   1.397       .  A
C2247      H2256   1.084       .  S
C2248      C2254   1.398       .  A
C2248      C2249   1.413       .  A
C2249      C2251   1.403       .  A
C2249      C2250   1.406       .  A
C2250      H2257   1.084       .  S
C2251      C2252   1.400       .  A
C2251      H2258   1.084       .  S
C2252      C2253   1.408       .  A
C2252      H2259   1.083       .  S
C2253      C2254   1.404       .  A
C2254      H2260   1.084       .  S
C2261      C2262   1.405       .  A
C2261      C2266   1.408       .  A
C2262      C2263   1.396       .  A
C2262      H2271   1.083       .  S
C2263      C2264   1.402       .  A
C2263      H2272   1.084       .  S
C2264      C2270   1.401       .  A
C2264      C2265   1.413       .  A
C2265      C2267   1.405       .  A
C2265      C2266   1.406       .  A
C2266      H2273   1.084       .  S
C2267      C2268   1.401       .  A
C2267      H2274   1.083       .  S
C2268      C2269   1.404       .  A
C2268      H2275   1.083       .  S
C2269      C2270   1.407       .  A
C2270      H2276   1.085       .  S
C2277      C2278   1.405       .  A
C2277      C2282   1.402       .  A
C2278      C2279   1.396       .  A
C2278      H2287   1.083       .  S
C2279      C2280   1.401       .  A
C2279      H2288   1.084       .  S
C2280      C2286   1.404       .  A
C2280      C2281   1.415       .  A
C2281      C2283   1.399       .  A
C2281      C2282   1.404       .  A
C2282      H2289   1.084       .  S
C2283      C2284   1.396       .  A
C2283      H2290   1.084   1_655  S
C2284      C2285   1.409       .  A
C2284      H2291   1.083   1_655  S
C2285      C2286   1.406       .  A
C2286      H2292   1.084       .  S
C2293      C2294   1.409       .  A
C2293      C2298   1.403       .  A
C2294      C2295   1.396       .  A
C2294      H2303   1.083       .  S
C2295      C2296   1.399       .  A
C2295      H2304   1.084       .  S
C2296      C2302   1.406       .  A
C2296      C2297   1.415       .  A
C2297      C2299   1.397       .  A
C2297      C2298   1.402       .  A
C2298      H2305   1.084       .  S
C2299      C2300   1.392       .  A
C2299      H2306   1.084       .  S
C2300      C2301   1.410       .  A
C2300      H2307   1.083       .  S
C2301      C2302   1.404       .  A
C2302      H2308   1.084       .  S
C2309      C2310   1.407       .  A
C2309      C2314   1.406       .  A
C2310      C2311   1.401       .  A
C2310      H2319   1.083       .  S
C2311      C2312   1.404       .  A
C2311      H2320   1.083       .  S
C2312      C2318   1.411       .  A
C2312      C2313   1.414       .  A
C2313      C2315   1.400       .  A
C2313      C2314   1.406       .  A
C2314      H2321   1.084       .  S
C2315      C2316   1.396       .  A
C2315      H2322   1.084       .  S
C2316      C2317   1.409       .  A
C2316      H2323   1.083   1_455  S
C2317      C2318   1.410       .  A
C2318      H2324   1.084       .  S
C2325      C2326   1.402       .  A
C2325      C2330   1.408       .  A
C2326      C2327   1.396       .  A
C2326      H2335   1.083       .  S
C2327      C2328   1.403       .  A
C2327      H2336   1.084       .  S
C2328      C2334   1.399       .  A
C2328      C2329   1.411       .  A
C2329      C2331   1.405       .  A
C2329      C2330   1.403       .  A
C2330      H2337   1.085       .  S
C2331      C2332   1.401       .  A
C2331      H2338   1.084       .  S
C2332      C2333   1.404       .  A
C2332      H2339   1.083       .  S
C2333      C2334   1.409       .  A
C2334      H2340   1.084       .  S
