geometry optimzed in LAMMPS
_audit_creation_date              2020-11-30 
_audit_creation_method            'lammps2cif' 
_symmetry_space_group_name_H-M    'P1' 
_symmetry_Int_Tables_number       1 
_symmetry_cell_setting            triclinic 
loop_ 
_symmetry_equiv_pos_as_xyz 
  x,y,z 
_cell_length_a                    41.275535273361285 
_cell_length_b                    41.2972433537575 
_cell_length_c                    31.13656501697295 
_cell_angle_alpha                 90.81434187067508 
_cell_angle_beta                  90.48308696071499 
_cell_angle_gamma                 120.72627559613692 
loop_ 
_atom_site_label 
_atom_site_type_symbol 
_atom_site_fract_x 
_atom_site_fract_y 
_atom_site_fract_z 
_atom_site_charge 
In1        In  0.38861832  0.39333048  0.25005427     1.36870
C2          C  0.31827436  0.37818822  0.26010477     0.79460
O3          O  0.39511865  0.35293315  0.20780605    -0.58990
O4          O  0.36970469  0.33373691  0.26838817    -0.49900
C5          C  0.42270427  0.43452082  0.18196151     0.72130
O6          O  0.38755667  0.41804325  0.18689707    -0.44750
C7          C  0.42615395  0.42798538  0.32275484     0.76830
O8          O  0.34610524  0.41133501  0.25950708    -0.56610
O9          O  0.42905912  0.40203889  0.30484829    -0.46710
O10         O  0.32635328  0.35308573  0.25322357    -0.53050
C11         C  0.37901343  0.32572881  0.23302815     0.87010
O12         O  0.44048509  0.43086688  0.21279816    -0.54940
O13         O  0.40457533  0.43599600  0.30307191    -0.58230
C14         C  0.17707295  0.33359468  0.33732206     0.02440
C15         C  0.14341614  0.32651022  0.32117800     0.02440
C16         C  0.32817628  0.17962995  0.15760861     0.02440
C17         C  0.32190097  0.14686929  0.17458165     0.02440
In18       In  0.93216667  0.26369590  0.41981230     1.36870
C19         C  0.00090365  0.28160101  0.39645733     0.79460
O20         O  0.90710213  0.21424373  0.37276055    -0.58990
O21         O  0.90092036  0.26082762  0.35956817    -0.49900
C22         C  0.89790674  0.22443370  0.48969690     0.72130
O23         O  0.93221071  0.23682783  0.48233856    -0.44750
C24         C  0.94457501  0.33150460  0.44253252     0.76830
O25         O  0.98097891  0.25334714  0.41936767    -0.56610
O26         O  0.91389582  0.30659490  0.42531504    -0.46710
O27         O  0.98487416  0.29912162  0.38475825    -0.53050
C28         C  0.89485048  0.22904411  0.34711479     0.87010
O29         O  0.88107262  0.23132967  0.46059711    -0.54940
O30         O  0.96787240  0.32106499  0.44968204    -0.58230
In31       In  0.05460589  0.72682446  0.58418590     1.36870
C32         C  0.98602853  0.71226082  0.60336447     0.79460
O33         O  0.02432611  0.67702068  0.53976714    -0.58990
O34         O  0.05546905  0.67314694  0.59207056    -0.49900
C35         C  0.09418530  0.76586056  0.51684125     0.72130
O36         O  0.06346609  0.76310214  0.52717451    -0.44750
C37         C  0.09272514  0.76176593  0.65634682     0.76830
O38         O  0.00925192  0.74196450  0.58461885    -0.56610
O39         O  0.09343385  0.73411520  0.63982395    -0.46710
O40         O  0.99826002  0.69084903  0.61282938    -0.53050
C41         C  0.03404343  0.65691442  0.55986955     0.87010
O42         O  0.10536027  0.74988787  0.54208875    -0.54940
O43         O  0.07373779  0.77211468  0.63495932    -0.58230
In44       In  0.59958586  0.59620221  0.75734354     1.36870
C45         C  0.61538530  0.66693581  0.76954174     0.79460
O46         O  0.55459652  0.57681273  0.80649625    -0.58990
O47         O  0.59238878  0.55704207  0.81159628    -0.49900
C48         C  0.56107122  0.56365257  0.68502665     0.72130
O49         O  0.57497450  0.59824520  0.69380965    -0.44750
C50         C  0.66803367  0.60938919  0.73938901     0.76830
O51         O  0.58382702  0.64152097  0.75446679    -0.56610
O52         O  0.66144030  0.62346845  0.77184498    -0.46710
O53         O  0.63790627  0.65575704  0.77771473    -0.53050
C54         C  0.56458363  0.55740889  0.82725715     0.87010
O55         O  0.56611229  0.54553577  0.71399976    -0.54940
O56         O  0.63923000  0.58638051  0.71768665    -0.58230
C57         C  0.84360063  0.66953767  0.67557552     0.02440
C58         C  0.80971027  0.66122543  0.65884421     0.02440
In59       In  0.71907517  0.05777039  0.91350044     1.36870
C60         C  0.64784698  0.03899114  0.92679683     0.79460
O61         O  0.71827969  0.01464088  0.86851839    -0.58990
O62         O  0.70465578  0.99963500  0.93359062    -0.49900
C63         C  0.75299025  0.09550119  0.84322390     0.72130
O64         O  0.71916450  0.08515389  0.85131804    -0.44750
C65         C  0.75911192  0.09617765  0.98365757     0.76830
O66         O  0.67165126  0.07049804  0.91182960    -0.56610
O67         O  0.76271293  0.07071432  0.96573662    -0.46710
O68         O  0.66056913  0.01758486  0.93345462    -0.53050
C69         C  0.70816603  0.98956226  0.89634466     0.87010
O70         O  0.76968179  0.08804277  0.87210837    -0.54940
O71         O  0.73620563  0.10278612  0.96457137    -0.58230
C72         C  0.65259353  0.81056615  0.84024859     0.02440
C73         C  0.65937283  0.84366178  0.82376936     0.02440
C74         C  0.98309622  0.47689668  0.50926368     0.02440
C75         C  0.98942077  0.50921639  0.49067804     0.02440
In76       In  0.26495327  0.93138563  0.09057023     1.36870
C77         C  0.28237152  0.00237974  0.10437145     0.79460
O78         O  0.21859121  0.91086961  0.13886661    -0.58990
O79         O  0.25719358  0.89200784  0.14414323    -0.49900
C80         C  0.22588769  0.89855963  0.01868505     0.72130
O81         O  0.24089366  0.93342999  0.02676094    -0.44750
C82         C  0.33252078  0.94236069  0.07060964     0.76830
O83         O  0.25102563  0.97789488  0.08797577    -0.56610
O84         O  0.32644907  0.95350847  0.10584269    -0.46710
O85         O  0.30388384  0.99015326  0.11329547    -0.53050
C86         C  0.22885207  0.89157254  0.15946015     0.87010
O87         O  0.22980759  0.88030098  0.04843659    -0.54940
O88         O  0.30361786  0.92367086  0.04707515    -0.58230
C89         C  0.50812412  0.00159220  0.00441400     0.02440
C90         C  0.47397122  0.99360468  0.98864613     0.02440
In91       In  0.26388844  0.32804337  0.58055660     1.36870
C92         C  0.28025594  0.27636125  0.60425209     0.79460
O93         O  0.31705006  0.34759717  0.54486822    -0.58990
O94         O  0.31459315  0.38698366  0.58711080    -0.49900
C95         C  0.22620849  0.32505416  0.50858320     0.72130
O96         O  0.23199096  0.29919519  0.51956563    -0.44750
C97         C  0.22568205  0.32870234  0.64927256     0.76830
O98         O  0.25338649  0.26879764  0.57847237    -0.56610
O99         O  0.25452695  0.35780632  0.63618141    -0.46710
O100        O  0.29747874  0.30980600  0.61874693    -0.53050
C101        C  0.33407323  0.38026064  0.56145816     0.87010
O102        O  0.23855711  0.35202866  0.53544464    -0.54940
O103        O  0.21565490  0.29975717  0.62607855    -0.58230
C104        C  0.32797007  0.14820773  0.65632401     0.02440
C105        C  0.31878196  0.17234867  0.67468512     0.02440
In106      In  0.72331168  0.66869709  0.41645845     1.36870
C107        C  0.70535423  0.71932158  0.39352974     0.79460
O108        O  0.77375144  0.69104299  0.37273169    -0.58990
O109        O  0.72433623  0.64018168  0.35510416    -0.49900
C110        C  0.76162676  0.67192435  0.48779118     0.72130
O111        O  0.75757962  0.69886459  0.47641571    -0.44750
C112        C  0.65505043  0.61469405  0.43964941     0.76830
O113        O  0.73267246  0.72784799  0.41908501    -0.56610
O114        O  0.67775178  0.60754696  0.42090996    -0.46710
O115        O  0.68919003  0.68599777  0.37884289    -0.53050
C116        C  0.75739071  0.66461122  0.34524660     0.87010
O117        O  0.74745896  0.64438786  0.46163704    -0.54940
O118        O  0.66771157  0.64915210  0.44741403    -0.58230
C119        C  0.65703467  0.81396183  0.31950747     0.02440
C120        C  0.64862741  0.83964503  0.33501740     0.02440
C121        C  0.47929579  0.48297971  0.49439837     0.02440
C122        C  0.51236151  0.51062653  0.51176283     0.02440
In123      In  0.38591103  0.99406938  0.74447753     1.36870
C124        C  0.31814972  0.93834630  0.76621616     0.79460
O125        O  0.41833737  0.97701661  0.78806265    -0.58990
O126        O  0.41100502  0.02162845  0.80873797    -0.49900
C127        C  0.42059293  0.99232624  0.67287383     0.72130
O128        O  0.38880067  0.96544679  0.68329995    -0.44750
C129        C  0.37085801  0.04699706  0.72349114     0.76830
O130        O  0.34357165  0.93215831  0.75375734    -0.56610
O131        O  0.40071626  0.05464331  0.74373780    -0.46710
O132        O  0.32761262  0.97249441  0.76740808    -0.53050
C133        C  0.42388502  0.00062229  0.81746078     0.87010
O134        O  0.43472281  0.01944345  0.69957547    -0.54940
O135        O  0.34977163  0.01273320  0.71294160    -0.58230
In136      In  0.59622322  0.99507197  0.24579312     1.36870
C137        C  0.60655663  0.93781174  0.26141953     0.79460
O138        O  0.64870779  0.01338455  0.20946386    -0.58990
O139        O  0.64648816  0.05443074  0.24925295    -0.49900
C140        C  0.55955200  0.99625118  0.17523773     0.72130
O141        O  0.56017283  0.96745031  0.18666837    -0.44750
C142        C  0.56466963  0.99915647  0.31935376     0.76830
O143        O  0.57542083  0.93262400  0.24757628    -0.56610
O144        O  0.59922278  0.01985014  0.31186320    -0.46710
O145        O  0.63146948  0.97174150  0.26793108    -0.53050
C146        C  0.66579716  0.04674635  0.22429045     0.87010
O147        O  0.57666629  0.02410110  0.20077499    -0.54940
O148        O  0.54609224  0.97723793  0.28852474    -0.58230
In149      In  0.05625510  0.33059381  0.07839436     1.36870
C150        C  0.98791422  0.27665566  0.10101494     0.79460
O151        O  0.07620763  0.30355936  0.12515833    -0.58990
O152        O  0.09457991  0.36109055  0.13573198    -0.49900
C153        C  0.08990604  0.32766409  0.00625938     0.72130
O154        O  0.05704621  0.30292934  0.01629329    -0.44750
C155        C  0.03819650  0.38181708  0.05894512     0.76830
O156        O  0.01077756  0.26946622  0.08273823    -0.56610
O157        O  0.06432201  0.38893821  0.08573576    -0.46710
O158        O  0.00035035  0.31112368  0.10843781    -0.53050
C159        C  0.09432598  0.33228553  0.14914185     0.87010
O160        O  0.10641204  0.35365082  0.03417885    -0.54940
O161        O  0.02308092  0.34953067  0.04143258    -0.58230
In162      In  0.92936789  0.66106769  0.91803358     1.36870
C163        C  0.99945265  0.71303962  0.89899896     0.79460
O164        O  0.96611777  0.64107683  0.94570532    -0.58990
O165        O  0.91219631  0.59982262  0.92093793    -0.49900
C166        C  0.89435863  0.66318555  0.98920032     0.72130
O167        O  0.92287082  0.69194243  0.97493217    -0.44750
C168        C  0.89152315  0.65937598  0.84672930     0.76830
O169        O  0.98114221  0.71906764  0.92711886    -0.56610
O170        O  0.89806397  0.63372396  0.85614460    -0.46710
O171        O  0.98131836  0.68131381  0.88017035    -0.53050
C172        C  0.94299682  0.60671291  0.93795913     0.87010
O173        O  0.88329995  0.63397033  0.96621317    -0.54940
O174        O  0.90318454  0.68537772  0.87476804    -0.58230
C175        C  0.99149071  0.47959113  0.99077136     0.02440
C176        C  0.98367216  0.50510778  0.00793846     0.02440
C177        C  0.14406847  0.81328793  0.82982683     0.02440
C178        C  0.17793496  0.84024703  0.84632405     0.02440
C179        C  0.84525838  0.17429750  0.17406325     0.02440
C180        C  0.81143894  0.14845133  0.15633997     0.02440
In181      In  0.31511972  0.25813098  0.91741978     1.36870
C182        C  0.26640919  0.28028995  0.89760370     0.79460
O183        O  0.35010179  0.30160461  0.96770778    -0.58990
O184        O  0.36781072  0.31315268  0.90309604    -0.49900
C185        C  0.30918418  0.21785794  0.98616048     0.72130
O186        O  0.28654511  0.22906328  0.97790079    -0.44750
C187        C  0.31615895  0.22005832  0.84784467     0.76830
O188        O  0.25623754  0.24967180  0.91625247    -0.56610
O189        O  0.34566683  0.24527076  0.86670069    -0.46710
O190        O  0.30099161  0.29885543  0.88960504    -0.53050
C191        C  0.37369259  0.32446453  0.94178309     0.87010
O192        O  0.33331540  0.22522222  0.95753422    -0.54940
O193        O  0.28617405  0.21330720  0.86584885    -0.58230
C194        C  0.17006723  0.32579299  0.81896624     0.02440
C195        C  0.14433372  0.33390326  0.83458528     0.02440
In196      In  0.66142857  0.72404322  0.07909285     1.36870
C197        C  0.71932541  0.71523005  0.09813261     0.79460
O198        O  0.68278466  0.77508420  0.12218637    -0.58990
O199        O  0.63191301  0.72566340  0.13873388    -0.49900
C200        C  0.66064082  0.76125992  0.00958597     0.72130
O201        O  0.69079784  0.76707050  0.02713700    -0.44750
C202        C  0.60940631  0.65159124  0.06632286     0.76830
O203        O  0.70639480  0.71110780  0.06031448    -0.56610
O204        O  0.60146735  0.67485431  0.08241775    -0.46710
O205        O  0.70361323  0.72514563  0.12554029    -0.53050
C206        C  0.65647790  0.75924817  0.14870896     0.87010
O207        O  0.63152188  0.73737852  0.02839656    -0.54940
O208        O  0.64362979  0.66548637  0.05769903    -0.58230
C209        C  0.47948573  0.47237465  0.01274380     0.02440
C210        C  0.50751209  0.50460797  0.99523760     0.02440
In211      In  0.98839809  0.38913501  0.74709318     1.36870
C212        C  0.04451828  0.37509727  0.75756228     0.79460
O213        O  0.01643857  0.43384769  0.79834920    -0.58990
O214        O  0.95775305  0.39717939  0.80254557    -0.49900
C215        C  0.99194958  0.42857716  0.67830130     0.72130
O216        O  0.01319524  0.41533606  0.68420908    -0.44750
C217        C  0.92969931  0.32081617  0.73135701     0.76830
O218        O  0.05000946  0.40800324  0.75579182    -0.56610
O219        O  0.94667064  0.33017251  0.76738924    -0.46710
O220        O  0.01069131  0.34961762  0.75160638    -0.53050
C221        C  0.98712796  0.42453437  0.81917852     0.87010
O222        O  0.96943752  0.42247586  0.70842244    -0.54940
O223        O  0.94177129  0.34689634  0.70453012    -0.58230
C224        C  0.83458886  0.17445814  0.65641755     0.02440
C225        C  0.80815757  0.14075085  0.67219012     0.02440
In226      In  0.65068401  0.92579365  0.58247204     1.36870
C227        C  0.70774504  0.99626414  0.59463853     0.79460
O228        O  0.59548822  0.90993600  0.55063928    -0.58990
O229        O  0.61647524  0.95200459  0.60000914    -0.49900
C230        C  0.65628612  0.89555145  0.50847928     0.72130
O231        O  0.67736347  0.92982117  0.51883691    -0.44750
C232        C  0.64573139  0.88781852  0.65345037     0.76830
O233        O  0.70985984  0.96817160  0.60593083    -0.56610
O234        O  0.62231272  0.89758041  0.64370315    -0.46710
O235        O  0.67776472  0.98795821  0.57474561    -0.53050
C236        C  0.59182231  0.93449930  0.57097766     0.87010
O237        O  0.63323727  0.87631721  0.53703102    -0.54940
O238        O  0.67082577  0.89628271  0.62590134    -0.58230
In239      In  0.33133563  0.06129797  0.41361033     1.36870
C240        C  0.27804873  0.99095623  0.39323538     0.79460
O241        O  0.30145349  0.07556826  0.36393852    -0.58990
O242        O  0.36059525  0.10239947  0.36006136    -0.49900
C243        C  0.32704914  0.09635969  0.48441870     0.72130
O244        O  0.30241587  0.06341832  0.47300856    -0.44750
C245        C  0.38484544  0.04629136  0.43309852     0.76830
O246        O  0.27084545  0.01414814  0.41101166    -0.56610
O247        O  0.38925112  0.06908932  0.40394872    -0.46710
O248        O  0.31225957  0.00413054  0.38457819    -0.53050
C249        C  0.33048182  0.09794999  0.34380379     0.87010
O250        O  0.35400861  0.11207137  0.45882948    -0.54940
O251        O  0.35435668  0.03319015  0.45300743    -0.58230
In252      In  0.98774420  0.59481234  0.25188351     1.36870
C253        C  0.04052538  0.66384866  0.27698548     0.79460
O254        O  0.96853972  0.62713834  0.21378726    -0.58990
O255        O  0.93028243  0.58886610  0.25874213    -0.49900
C256        C  0.99045842  0.56004066  0.18021854     0.72130
O257        O  0.01695489  0.59160545  0.19329475    -0.44750
C258        C  0.98724119  0.55507506  0.31905145     0.76830
O259        O  0.04720318  0.64415327  0.25126107    -0.56610
O260        O  0.95775149  0.55309160  0.30421168    -0.46710
O261        O  0.00740507  0.64746791  0.29103518    -0.53050
C262        C  0.93701803  0.61376818  0.23141995     0.87010
O263        O  0.96265317  0.54545327  0.20480350    -0.54940
O264        O  0.01644496  0.57618683  0.29834968    -0.58230
C265        C  0.81522269  0.66992640  0.17584701     0.02440
C266        C  0.84061938  0.66140215  0.16000374     0.02440
C267        C  0.14681451  0.81060564  0.34638170     0.02440
C268        C  0.17344939  0.84280603  0.32818255     0.02440
C269        C  0.48006235  0.99822171  0.50435050     0.02440
C270        C  0.50500593  0.98882005  0.48930420     0.02440
C271        C  0.92607373  0.66430255  0.20654366     0.25470
C272        C  0.91104781  0.62725025  0.22074997    -0.22630
C273        C  0.87165738  0.60337748  0.22203475     0.20380
C274        C  0.84786249  0.61537747  0.20548449     0.25420
C275        C  0.86332229  0.65145898  0.18809742    -0.22580
C276        C  0.90242849  0.67627410  0.19054230     0.20320
F277        F  0.91793236  0.71170532  0.17533567    -0.12540
F278        F  0.96389252  0.68877052  0.20704135    -0.14900
F279        F  0.81008116  0.59095922  0.20360329    -0.14900
F280        F  0.85634600  0.56769034  0.23636582    -0.12540
C281        C  0.10757727  0.71595745  0.28941584     0.25470
C282        C  0.06874267  0.70307419  0.28950794    -0.22630
C283        C  0.05673252  0.72789783  0.30269556     0.20380
C284        C  0.08279139  0.76409724  0.31788323     0.25420
C285        C  0.12128982  0.77609258  0.32066953    -0.22580
C286        C  0.13367518  0.75217106  0.30525658     0.20320
F287        F  0.17069568  0.76299614  0.30787312    -0.12540
F288        F  0.12010007  0.69281193  0.27639181    -0.14900
F289        F  0.07020124  0.78709451  0.33118421    -0.14900
F290        F  0.01962421  0.71701967  0.30132061    -0.12540
C291        C  0.39739609  0.99565264  0.45091125     0.25470
C292        C  0.41168643  0.03386843  0.44265427    -0.22630
C293        C  0.45061360  0.05947165  0.44712971     0.20380
C294        C  0.47429286  0.04738126  0.46381103     0.25420
C295        C  0.45909363  0.00962448  0.47554294    -0.22580
C296        C  0.42091492  0.98361195  0.46692616     0.20320
F297        F  0.40586957  0.94672287  0.47630301    -0.12540
F298        F  0.36018506  0.97005761  0.44492601    -0.14900
F299        F  0.51136203  0.07284135  0.47111443    -0.14900
F300        F  0.46508341  0.09647478  0.43870008    -0.12540
C301        C  0.25692708  0.92256719  0.38681703     0.25470
C302        C  0.24891149  0.95166675  0.38286943    -0.22630
C303        C  0.21338712  0.94312111  0.36713387     0.20380
C304        C  0.18754941  0.90671519  0.35203793     0.25420
C305        C  0.19646704  0.87814341  0.35359850    -0.22580
C306        C  0.23058076  0.88588113  0.37292839     0.20320
F307        F  0.23905803  0.85831695  0.37662835    -0.12540
F308        F  0.29046196  0.92975628  0.40357894    -0.14900
F309        F  0.15448592  0.89979780  0.33411923    -0.14900
F310        F  0.20471715  0.97057297  0.36354503    -0.12540
C311        C  0.51359710  0.93538836  0.50895536     0.25470
C312        C  0.52169856  0.97228071  0.51751686    -0.22630
C313        C  0.54878313  0.99429440  0.54924048     0.20380
C314        C  0.56942513  0.98054473  0.56987150     0.25420
C315        C  0.56362095  0.94474969  0.55848935    -0.22580
C316        C  0.53435246  0.92169813  0.52922760     0.20320
F317        F  0.52708343  0.88659568  0.51848001    -0.12540
F318        F  0.48665357  0.91315660  0.47939952    -0.14900
F319        F  0.59719775  0.00358229  0.59823323    -0.14900
F320        F  0.55733212  0.03015010  0.55782382    -0.12540
C321        C  0.74935992  0.09738091  0.63099836     0.25470
C322        C  0.78591886  0.10704998  0.64391164    -0.22630
C323        C  0.79846086  0.08180058  0.63526191     0.20380
C324        C  0.77356986  0.04599209  0.61740120     0.25420
C325        C  0.73623690  0.03556487  0.60671045    -0.22580
C326        C  0.72493458  0.06225881  0.61196712     0.20320
F327        F  0.68922601  0.05343177  0.60181939    -0.12540
F328        F  0.73658663  0.12132636  0.63865822    -0.14900
F329        F  0.78562149  0.02121997  0.61166113    -0.14900
F330        F  0.83422517  0.09117398  0.64575742    -0.12540
C331        C  0.90223012  0.25118466  0.73460138     0.25470
C332        C  0.89999882  0.28202115  0.71977530    -0.22630
C333        C  0.87243194  0.27588211  0.68879780     0.20380
C334        C  0.84891856  0.23994123  0.67111386     0.25420
C335        C  0.85313092  0.20961974  0.68325417    -0.22580
C336        C  0.87936441  0.21530640  0.71593280     0.20320
F337        F  0.88526314  0.18708846  0.72710473    -0.12540
F338        F  0.92895438  0.25639045  0.76413907    -0.14900
F339        F  0.82330788  0.23518795  0.64031511    -0.14900
F340        F  0.86931904  0.30504821  0.67427365    -0.12540
C341        C  0.54295658  0.59973649  0.04993413     0.25470
C342        C  0.58130813  0.61171360  0.05625875    -0.22630
C343        C  0.59346017  0.58594496  0.04866869     0.20380
C344        C  0.56860669  0.55016336  0.03145672     0.25420
C345        C  0.53104649  0.53921989  0.02197721    -0.22580
C346        C  0.51793208  0.56359440  0.03309806     0.20320
F347        F  0.48139837  0.55315695  0.02563400    -0.12540
F348        F  0.53017485  0.62373192  0.05728132    -0.14900
F349        F  0.58159026  0.52653376  0.02285766    -0.14900
F350        F  0.62980558  0.59577059  0.05656972    -0.12540
C351        C  0.74612443  0.67305326  0.09737373     0.25470
C352        C  0.74886375  0.70711388  0.11045530    -0.22630
C353        C  0.77696772  0.73088026  0.14027547     0.20380
C354        C  0.80069182  0.71989028  0.15864477     0.25420
C355        C  0.79609897  0.68451710  0.14831095    -0.22580
C356        C  0.76931649  0.66155645  0.11661937     0.20320
F357        F  0.76349117  0.62681180  0.10690969    -0.12540
F358        F  0.71873453  0.64937629  0.06899923    -0.14900
F359        F  0.82707663  0.74310190  0.18817704    -0.14900
F360        F  0.78053731  0.76421248  0.15274912    -0.12540
C361        C  0.09341203  0.32043401  0.78024293     0.25470
C362        C  0.12374616  0.34642702  0.80644858    -0.22630
C363        C  0.13095767  0.38342025  0.81098140     0.20380
C364        C  0.10674532  0.39366264  0.79209204     0.25420
C365        C  0.07438164  0.36676882  0.76900390    -0.22580
C366        C  0.06869428  0.33040474  0.76192567     0.20320
F367        F  0.03830461  0.30397339  0.73887017    -0.12540
F368        F  0.08627923  0.28468901  0.77477278    -0.14900
F369        F  0.11346118  0.42909219  0.79931305    -0.14900
F370        F  0.16053384  0.40921755  0.83553875    -0.12540
C371        C  0.41432162  0.39388817  0.93193851     0.25470
C372        C  0.40472532  0.36182495  0.95596154    -0.22630
C373        C  0.42239593  0.36609871  0.99587816     0.20380
C374        C  0.44914743  0.40180198  0.01171178     0.25420
C375        C  0.45702962  0.43473311  0.98957658    -0.22580
C376        C  0.43888149  0.43000302  0.94928326     0.20320
F377        F  0.44146312  0.45957132  0.92821508    -0.12540
F378        F  0.39729712  0.39041753  0.89324136    -0.14900
F379        F  0.46615922  0.40385045  0.04992681    -0.14900
F380        F  0.41330156  0.33558093  0.02009823    -0.12540
C381        C  0.20103411  0.26889614  0.88369270     0.25470
C382        C  0.24044068  0.29339542  0.88456074    -0.22630
C383        C  0.25534145  0.33030780  0.86961868     0.20380
C384        C  0.23176841  0.34145959  0.85123463     0.25420
C385        C  0.19283756  0.31616752  0.84745934    -0.22580
C386        C  0.17739344  0.28022642  0.86514692     0.20320
F387        F  0.13977254  0.25530963  0.86194967    -0.12540
F388        F  0.18552401  0.23331830  0.89843602    -0.14900
F389        F  0.24724359  0.37667286  0.83538985    -0.14900
F390        F  0.29300588  0.35541511  0.87131580    -0.12540
C391        C  0.01924454  0.55008849  0.06814604     0.25470
C392        C  0.98880328  0.51508137  0.05446009    -0.22630
C393        C  0.96087382  0.49282960  0.08384210     0.20380
C394        C  0.96205678  0.50662831  0.12558082     0.25420
C395        C  0.99145465  0.54280426  0.13853659    -0.22580
C396        C  0.02071791  0.56377828  0.10974279     0.20320
F397        F  0.04991929  0.59853161  0.12088901    -0.12540
F398        F  0.04698620  0.57183129  0.04059561    -0.14900
F399        F  0.93371146  0.48517950  0.15264892    -0.14900
F400        F  0.93145754  0.45864127  0.07141921    -0.12540
C401        C  0.95532623  0.44997019  0.92191052     0.25470
C402        C  0.98995770  0.47214197  0.94376380    -0.22630
C403        C  0.02351110  0.48176460  0.92268217     0.20380
C404        C  0.02256180  0.46770534  0.88140044     0.25420
C405        C  0.98784936  0.44331419  0.86040443    -0.22580
C406        C  0.95423346  0.43549287  0.88057433     0.20320
F407        F  0.92025674  0.41277611  0.86101948    -0.12540
F408        F  0.92250149  0.44036585  0.94162783    -0.14900
F409        F  0.05572579  0.47635302  0.86312864    -0.14900
F410        F  0.05734498  0.50348290  0.94296611    -0.12540
C411        C  0.85276925  0.62874500  0.05066989     0.25470
C412        C  0.87634068  0.66306178  0.03032965    -0.22630
C413        C  0.88425382  0.69695889  0.05112577     0.20380
C414        C  0.87027789  0.69653605  0.09219480     0.25420
C415        C  0.84861696  0.66230162  0.11330027    -0.22580
C416        C  0.83933921  0.62845682  0.09175721     0.20320
F417        F  0.81822600  0.59496314  0.11126946    -0.12540
F418        F  0.84436951  0.59538256  0.03193971    -0.14900
F419        F  0.87968402  0.72964627  0.11232008    -0.14900
F420        F  0.90636247  0.73058260  0.03228099    -0.12540
C421        C  0.98807502  0.58357476  0.94315258     0.25470
C422        C  0.95152486  0.57726312  0.94878824    -0.22630
C423        C  0.92416872  0.54393311  0.96784795     0.20380
C424        C  0.93412877  0.51889286  0.98448987     0.25420
C425        C  0.97126619  0.52636627  0.98123934    -0.22580
C426        C  0.99772546  0.55795443  0.95871495     0.20320
F427        F  0.03347792  0.56516704  0.95411145    -0.12540
F428        F  0.01467033  0.61503362  0.92350535    -0.14900
F429        F  0.90795658  0.48822054  0.00560930    -0.14900
F430        F  0.88862487  0.53708100  0.97336485    -0.12540
C431        C  0.06188742  0.72630437  0.87375122     0.25470
C432        C  0.03906807  0.74006064  0.88876373    -0.22630
C433        C  0.05388809  0.77921779  0.89120904     0.20380
C434        C  0.08977214  0.80396039  0.87512633     0.25420
C435        C  0.11120968  0.78970810  0.85704929    -0.22580
C436        C  0.09763455  0.75091522  0.85822517     0.20320
F437        F  0.11841843  0.73662153  0.84244638    -0.12540
F438        F  0.04919426  0.68878872  0.87305853    -0.14900
F439        F  0.10242459  0.84142046  0.87447117    -0.14900
F440        F  0.03268761  0.79330840  0.90621779    -0.12540
C441        C  0.14319093  0.35541145  0.95347569     0.25470
C442        C  0.10656359  0.32680078  0.96438783    -0.22630
C443        C  0.08468604  0.29842157  0.93348744     0.20380
C444        C  0.09811299  0.29986285  0.89213592     0.25420
C445        C  0.13378950  0.32936867  0.88065632    -0.22580
C446        C  0.15670386  0.35657921  0.91193979     0.20320
F447        F  0.19140120  0.38528067  0.90166950    -0.12540
F448        F  0.16544405  0.38304081  0.98239966    -0.14900
F449        F  0.07564599  0.27282852  0.86276309    -0.14900
F450        F  0.04950131  0.26991398  0.94254291    -0.12540
C451        C  0.98786265  0.39362103  0.03411791     0.25470
C452        C  0.02519312  0.40817542  0.04878941    -0.22630
C453        C  0.04972304  0.44745904  0.05116921     0.20380
C454        C  0.03798297  0.47154101  0.03536850     0.25420
C455        C  0.00149634  0.45651765  0.01767216    -0.22580
C456        C  0.97615015  0.41758680  0.01887537     0.20320
F457        F  0.94038641  0.40253683  0.00330788    -0.12540
F458        F  0.96281530  0.35595050  0.03345884    -0.14900
F459        F  0.06297252  0.50914999  0.03458838    -0.14900
F460        F  0.08570588  0.46235656  0.06593247    -0.12540
C461        C  0.91945873  0.25359597  0.10898432     0.25470
C462        C  0.94980707  0.24742022  0.11348261    -0.22630
C463        C  0.94392846  0.21435690  0.13269449     0.20380
C464        C  0.90896680  0.18928645  0.15020827     0.25420
C465        C  0.87915995  0.19641951  0.14767714    -0.22580
C466        C  0.88417200  0.22792559  0.12538374     0.20320
F467        F  0.85548511  0.23483212  0.12143176    -0.12540
F468        F  0.92420694  0.28485899  0.08938012    -0.14900
F469        F  0.90462101  0.15874604  0.17111992    -0.14900
F470        F  0.97275527  0.20770783  0.13726305    -0.12540
C471        C  0.55542225  0.02229654  0.43547665     0.25470
C472        C  0.51786329  0.99503567  0.44397746    -0.22630
C473        C  0.49481863  0.97101790  0.41037829     0.20380
C474        C  0.50956134  0.97324576  0.36937675     0.25420
C475        C  0.54774348  0.99953655  0.36124653    -0.22580
C476        C  0.57022370  0.02463592  0.39461862     0.20320
F477        F  0.60699084  0.05073995  0.38828116    -0.12540
F478        F  0.57822723  0.04604650  0.46729663    -0.14900
F479        F  0.48678887  0.94852486  0.33821783    -0.14900
F480        F  0.45863324  0.94396737  0.41781562    -0.12540
C481        C  0.72020957  0.11308540  0.21616153     0.25470
C482        C  0.70534394  0.07390872  0.21318256    -0.22630
C483        C  0.72834692  0.06042869  0.19776550     0.20380
C484        C  0.76429042  0.08533582  0.18276405     0.25420
C485        C  0.77802422  0.12418951  0.18262295    -0.22580
C486        C  0.75628751  0.13807599  0.20072225     0.20320
F487        F  0.76891653  0.17553748  0.20085166    -0.12540
F488        F  0.69905306  0.12709669  0.23153726    -0.14900
F489        F  0.78518364  0.07130491  0.16659550    -0.14900
F490        F  0.71579906  0.02294795  0.19631317    -0.12540
C491        C  0.44364480  0.96064738  0.56803723     0.25470
C492        C  0.46983584  0.99541397  0.55048283    -0.22630
C493        C  0.48206398  0.02858745  0.57498740     0.20380
C494        C  0.46728382  0.02733243  0.61554515     0.25420
C495        C  0.43923857  0.99282657  0.63213714    -0.22580
C496        C  0.42810097  0.95937192  0.60831540     0.20320
F497        F  0.40164733  0.92548477  0.62357877    -0.12540
F498        F  0.43189726  0.92807923  0.54540614    -0.14900
F499        F  0.47902539  0.06025027  0.63747317    -0.14900
F500        F  0.50763644  0.06251491  0.55903078    -0.12540
C501        C  0.21478088  0.88888418  0.79139901     0.25470
C502        C  0.21143455  0.86076451  0.81892526    -0.22630
C503        C  0.24211684  0.85528205  0.82453902     0.20380
C504        C  0.27638408  0.87890862  0.80470754     0.25420
C505        C  0.28056017  0.90881946  0.77979242    -0.22580
C506        C  0.24921709  0.91296753  0.77226198     0.20320
F507        F  0.25232525  0.94118203  0.74747083    -0.12540
F508        F  0.18548409  0.89458099  0.78527340    -0.14900
F509        F  0.30623145  0.87440823  0.81263068    -0.14900
F510        F  0.23931486  0.82801973  0.85077126    -0.12540
C511        C  0.63222648  0.82742927  0.41355536     0.25470
C512        C  0.65411339  0.85204293  0.38110865    -0.22630
C513        C  0.67846771  0.89037618  0.39172843     0.20380
C514        C  0.67993811  0.90416975  0.43328976     0.25420
C515        C  0.65738032  0.87987455  0.46565954    -0.22580
C516        C  0.63408602  0.84114286  0.45555929     0.20320
F517        F  0.61207400  0.81667094  0.48589958    -0.12540
F518        F  0.60749513  0.79055678  0.40415215    -0.14900
F519        F  0.70240386  0.94176219  0.44116896    -0.14900
F520        F  0.70030850  0.91499058  0.36144624    -0.12540
C521        C  0.62170213  0.78137406  0.25104578     0.25470
C522        C  0.65596380  0.80549930  0.27274654    -0.22630
C523        C  0.69000802  0.81724309  0.25160363     0.20380
C524        C  0.68998715  0.80384210  0.21017545     0.25420
C525        C  0.65585407  0.77767188  0.18947857    -0.22580
C526        C  0.62164420  0.76710831  0.20990211     0.20320
F527        F  0.58821981  0.74232758  0.19045070    -0.12540
F528        F  0.58841603  0.77007298  0.27057406    -0.14900
F529        F  0.72353188  0.81439944  0.19163232    -0.14900
F530        F  0.72346658  0.84061425  0.27185724    -0.12540
C531        C  0.59789204  0.85143269  0.31098357     0.25470
C532        C  0.63476833  0.85848711  0.30629292    -0.22630
C533        C  0.65986587  0.88779331  0.28000963     0.20380
C534        C  0.64962327  0.91239726  0.26281710     0.25420
C535        C  0.61382340  0.90729442  0.27070872    -0.22580
C536        C  0.58726479  0.87544441  0.29274918     0.20320
F537        F  0.55232247  0.86961683  0.30011458    -0.12540
F538        F  0.57300257  0.82267598  0.33554916    -0.14900
F539        F  0.67533853  0.94236496  0.24030155    -0.14900
F540        F  0.69544415  0.89477020  0.27448062    -0.12540
C541        C  0.75200350  0.63623632  0.27186104     0.25470
C542        C  0.77452552  0.66287136  0.30405146    -0.22630
C543        C  0.81258294  0.68897460  0.29516465     0.20380
C544        C  0.82708424  0.68960063  0.25432204     0.25420
C545        C  0.80373101  0.66438279  0.22167019    -0.22580
C546        C  0.76643347  0.63716583  0.23119069     0.20320
F547        F  0.74333301  0.61234458  0.20028103    -0.12540
F548        F  0.71527206  0.61036289  0.27881704    -0.14900
F549        F  0.86317031  0.71635902  0.24586446    -0.14900
F550        F  0.83542966  0.71479027  0.32541786    -0.12540
C551        C  0.58707698  0.59276611  0.45059885     0.25470
C552        C  0.61682109  0.58543303  0.45200140    -0.22630
C553        C  0.61010450  0.55079916  0.46745939     0.20380
C554        C  0.57509834  0.52526547  0.48458911     0.25420
C555        C  0.54601031  0.53350198  0.48528863    -0.22580
C556        C  0.55170262  0.56663763  0.46642543     0.20320
F557        F  0.52349724  0.57440001  0.46488637    -0.12540
F558        F  0.59243628  0.62548977  0.43443793    -0.14900
F559        F  0.57009392  0.49316269  0.50210798    -0.14900
F560        F  0.63817112  0.54280378  0.46871301    -0.12540
C561        C  0.65468265  0.72995052  0.36699829     0.25470
C562        C  0.69213350  0.74522129  0.38164152    -0.22630
C563        C  0.71635504  0.78461515  0.38257724     0.20380
C564        C  0.70414380  0.80794441  0.36546136     0.25420
C565        C  0.66761077  0.79204739  0.34765050    -0.22580
C566        C  0.64262897  0.75312415  0.35019395     0.20320
F567        F  0.60672891  0.73725534  0.33480279    -0.12540
F568        F  0.62976759  0.69228535  0.36792937    -0.14900
F569        F  0.72859978  0.84563871  0.36381183    -0.14900
F570        F  0.75238630  0.80029353  0.39746938    -0.12540
C571        C  0.29296443  0.10767444  0.59274120     0.25470
C572        C  0.32464681  0.14046475  0.60928325    -0.22630
C573        C  0.35531145  0.16158964  0.58245224     0.20380
C574        C  0.35555716  0.14835741  0.54079802     0.25420
C575        C  0.32489985  0.11389897  0.52535691    -0.22580
C576        C  0.29295322  0.09458530  0.55120477     0.20320
F577        F  0.26217880  0.06196829  0.53716711    -0.12540
F578        F  0.26252676  0.08719227  0.61755608    -0.14900
F579        F  0.38659583  0.16824618  0.51659238    -0.14900
F580        F  0.38579771  0.19400425  0.59731254    -0.12540
C581        C  0.35171976  0.19797355  0.74606512     0.25470
C582        C  0.31809126  0.17709731  0.72203527    -0.22630
C583        C  0.28361535  0.16626862  0.74167326     0.20380
C584        C  0.28279924  0.17829529  0.78361800     0.25420
C585        C  0.31661813  0.20166143  0.80673536    -0.22580
C586        C  0.35102958  0.21014659  0.78807403     0.20320
F587        F  0.38425017  0.23187352  0.80955350    -0.12540
F588        F  0.38544065  0.20891054  0.72787853    -0.14900
F589        F  0.24892193  0.16882864  0.80049043    -0.14900
F590        F  0.25066455  0.14551585  0.71938418    -0.12540
C591        C  0.37788721  0.13607107  0.68331753     0.25470
C592        C  0.33976724  0.12592310  0.68209236    -0.22630
C593        C  0.31258664  0.09146652  0.69923650     0.20380
C594        C  0.32294217  0.06610407  0.71384072     0.25420
C595        C  0.36082183  0.07542831  0.71281067    -0.22580
C596        C  0.38842460  0.11121257  0.69918540     0.20320
F597        F  0.42522781  0.12106429  0.69837473    -0.12540
F598        F  0.40478840  0.16947125  0.66756060    -0.14900
F599        F  0.29586794  0.03214870  0.72834864    -0.14900
F600        F  0.27581032  0.08165698  0.70002713    -0.12540
C601        C  0.16903604  0.29298641  0.75064123     0.25470
C602        C  0.17805000  0.32670164  0.77230121    -0.22630
C603        C  0.19956841  0.36103519  0.75135823     0.20380
C604        C  0.21382880  0.36173563  0.71042768     0.25420
C605        C  0.20646497  0.32802421  0.68963457    -0.22580
C606        C  0.18285790  0.29355413  0.70967459     0.20320
F607        F  0.17498579  0.26037613  0.69089698    -0.12540
F608        F  0.14804784  0.25941051  0.77002428    -0.14900
F609        F  0.23586695  0.39549645  0.69182164    -0.14900
F610        F  0.20873577  0.39402999  0.77160207    -0.12540
C611        C  0.42332496  0.47205498  0.53728431     0.25470
C612        C  0.44604864  0.45865863  0.52086261    -0.22630
C613        C  0.43342871  0.42008481  0.52282596     0.20380
C614        C  0.39752994  0.39486146  0.53770990     0.25420
C615        C  0.37362330  0.40780380  0.55130234    -0.22580
C616        C  0.38739205  0.44678054  0.55274458     0.20320
F617        F  0.36517841  0.46018001  0.56626489    -0.12540
F618        F  0.43479157  0.50919490  0.53559345    -0.14900
F619        F  0.38584268  0.35757611  0.53790237    -0.14900
F620        F  0.45532475  0.40656375  0.50857305    -0.12540
C621        C  0.26533055  0.20971475  0.61358829     0.25470
C622        C  0.29116992  0.24875844  0.61669171    -0.22630
C623        C  0.32765417  0.26156295  0.63329253     0.20380
C624        C  0.33728813  0.23609078  0.64903423     0.25420
C625        C  0.31069360  0.19737841  0.64878487    -0.22580
C626        C  0.27497712  0.18419231  0.62981660     0.20320
F627        F  0.24874242  0.14689458  0.62924517    -0.12540
F628        F  0.23008377  0.19634173  0.59712596    -0.14900
F629        F  0.37234625  0.24941424  0.66602919    -0.14900
F630        F  0.35397090  0.29888879  0.63496808    -0.12540
C631        C  0.45827855  0.02648766  0.93307043     0.25470
C632        C  0.46794274  0.99936224  0.94283062    -0.22630
C633        C  0.46661032  0.97498635  0.91002778     0.20380
C634        C  0.45396405  0.97650732  0.86861149     0.25420
C635        C  0.44227907  0.00238466  0.85934624    -0.22580
C636        C  0.44570168  0.02812696  0.89179851     0.20320
F637        F  0.43540799  0.05397200  0.88426611    -0.12540
F638        F  0.45968766  0.05059266  0.96415957    -0.14900
F639        F  0.45153860  0.95143270  0.83821205    -0.14900
F640        F  0.47513187  0.94805239  0.91872608    -0.12540
C641        C  0.55491348  0.03240585  0.11410942     0.25470
C642        C  0.54190001  0.99773462  0.13427149    -0.22630
C643        C  0.51413981  0.96442916  0.11320146     0.20380
C644        C  0.50096807  0.96567561  0.07196771     0.25420
C645        C  0.51567381  0.00017118  0.05098952    -0.22580
C646        C  0.54212350  0.03352798  0.07278619     0.20320
F647        F  0.55660014  0.06725447  0.05336484    -0.12540
F648        F  0.58184378  0.06510488  0.13318527    -0.14900
F649        F  0.47541326  0.93302045  0.05165785    -0.14900
F650        F  0.50041501  0.93054257  0.13206003    -0.12540
C651        C  0.17586509  0.86798313  0.21188765     0.25470
C652        C  0.21035392  0.87175384  0.19930652    -0.22630
C653        C  0.22854621  0.85914484  0.22701310     0.20380
C654        C  0.21440088  0.84632394  0.26782189     0.25420
C655        C  0.18163622  0.84542348  0.28158772    -0.22580
C656        C  0.16151641  0.85464843  0.25262553     0.20320
F657        F  0.12913355  0.85285642  0.26469219    -0.12540
F658        F  0.15677905  0.87866767  0.18553729    -0.14900
F659        F  0.23393864  0.83667931  0.29477298    -0.14900
F660        F  0.26144509  0.86156186  0.21591821    -0.12540
C661        C  0.20388768  0.90316019  0.94507495     0.25470
C662        C  0.20757045  0.88117285  0.97669419    -0.22630
C663        C  0.19683074  0.84358488  0.96621943     0.20380
C664        C  0.18501798  0.82923930  0.92429718     0.25420
C665        C  0.18354835  0.85211415  0.89235948    -0.22580
C666        C  0.19204749  0.88875385  0.90341418     0.20320
F667        F  0.19001318  0.91116692  0.87337008    -0.12540
F668        F  0.21313912  0.93922420  0.95384661    -0.14900
F669        F  0.17717661  0.79382381  0.91431882    -0.14900
F670        F  0.19959979  0.82127184  0.99584092    -0.12540
C671        C  0.40886627  0.94259787  0.00516998     0.25470
C672        C  0.44005205  0.97819108  0.01589171    -0.22630
C673        C  0.43686655  0.99993809  0.04887057     0.20380
C674        C  0.40235554  0.98696634  0.06926508     0.25420
C675        C  0.37046820  0.95244443  0.05625675    -0.22580
C676        C  0.37437256  0.92994117  0.02493752     0.20320
F677        F  0.34440196  0.89612903  0.01238032    -0.12540
F678        F  0.41146002  0.92052271  0.97431873    -0.14900
F679        F  0.39943337  0.00952371  0.09920739    -0.14900
F680        F  0.46629740  0.03475423  0.05922076    -0.12540
C681        C  0.95448117  0.50881970  0.37783570     0.25470
C682        C  0.98811185  0.53643560  0.35901581    -0.22630
C683        C  0.02253712  0.54917436  0.38124771     0.20380
C684        C  0.02290531  0.53747874  0.42300827     0.25420
C685        C  0.98908417  0.51244280  0.44311654    -0.22580
C686        C  0.95501679  0.49670108  0.41951287     0.20320
F687        F  0.92192707  0.47241901  0.43822860    -0.12540
F688        F  0.92085652  0.49499990  0.35686302    -0.14900
F689        F  0.05620274  0.55257994  0.44503084    -0.14900
F690        F  0.05572060  0.57524068  0.36404279    -0.12540
C691        C  0.95959113  0.46423076  0.58500366     0.25470
C692        C  0.98880491  0.47379744  0.55592026    -0.22630
C693        C  0.02072670  0.47252906  0.56942164     0.20380
C694        C  0.02264804  0.46005672  0.61020112     0.25420
C695        C  0.99233775  0.44784195  0.63833387    -0.22580
C696        C  0.96125551  0.45124272  0.62593581     0.20320
F697        F  0.93134429  0.43960657  0.65214604    -0.12540
F698        F  0.92840279  0.46508961  0.57279315    -0.14900
F699        F  0.05373155  0.45860017  0.62144149    -0.14900
F700        F  0.04977538  0.48221080  0.54245627    -0.12540
C701        C  0.62211243  0.77988403  0.90831995     0.25470
C702        C  0.65515312  0.80508204  0.88699193    -0.22630
C703        C  0.69013487  0.81936051  0.90827209     0.20380
C704        C  0.69209122  0.80647029  0.94914144     0.25420
C705        C  0.65899803  0.77927188  0.96935489    -0.22580
C706        C  0.62391285  0.76722674  0.94904497     0.20320
F707        F  0.59118045  0.74159929  0.96748432    -0.12540
F708        F  0.58789759  0.76624516  0.88886487    -0.14900
F709        F  0.72642490  0.81945848  0.96804141    -0.14900
F710        F  0.72248298  0.84405707  0.88850232    -0.12540
C711        C  0.67510895  0.84817492  0.74520457     0.25470
C712        C  0.65133749  0.84701847  0.77789491    -0.22630
C713        C  0.62295757  0.85505736  0.76805238     0.20380
C714        C  0.61970782  0.86626197  0.72689434     0.25420
C715        C  0.64509647  0.86994838  0.69471363    -0.22580
C716        C  0.67204146  0.85954374  0.70394199     0.20320
F717        F  0.69669603  0.86209554  0.67369854    -0.12540
F718        F  0.70306703  0.84099084  0.75396694    -0.14900
F719        F  0.59295973  0.87545057  0.71940248    -0.14900
F720        F  0.59942184  0.85377146  0.79907486    -0.12540
C721        C  0.80465481  0.10782610  0.04456134     0.25470
C722        C  0.77828284  0.11520100  0.02478221    -0.22630
C723        C  0.76778089  0.13845070  0.04663299     0.20380
C724        C  0.78104248  0.15155120  0.08838514     0.25420
C725        C  0.80528127  0.14205761  0.10911607    -0.22580
C726        C  0.81811109  0.12126138  0.08639873     0.20320
F727        F  0.84167030  0.11184075  0.10570953    -0.12540
F728        F  0.81614004  0.08619945  0.02428126    -0.14900
F729        F  0.76873500  0.17214719  0.10942984    -0.14900
F730        F  0.74289625  0.14681030  0.02871072    -0.12540
C731        C  0.77239871  0.14395128  0.73575660     0.25470
C732        C  0.79861809  0.13543031  0.71854338    -0.22630
C733        C  0.81215479  0.11700634  0.74418159     0.20380
C734        C  0.79883422  0.10605803  0.78564831     0.25420
C735        C  0.77082939  0.11236972  0.80200949    -0.22580
C736        C  0.75816855  0.13201478  0.77697497     0.20320
F737        F  0.73157264  0.13906918  0.79208216    -0.12540
F738        F  0.75955649  0.16257570  0.71210980    -0.14900
F739        F  0.81161968  0.08701315  0.80866250    -0.14900
F740        F  0.83769698  0.10865503  0.72865832    -0.12540
C741        C  0.70966903  0.91026165  0.83781062     0.25470
C742        C  0.67526613  0.87902053  0.85005507    -0.22630
C743        C  0.65428706  0.88371163  0.88233581     0.20380
C744        C  0.66661410  0.91959703  0.90021606     0.25420
C745        C  0.69942817  0.95118123  0.88510257    -0.22580
C746        C  0.72137974  0.94606454  0.85474838     0.20320
F747        F  0.75361470  0.97602825  0.84039569    -0.12540
F748        F  0.73116367  0.90638842  0.80778611    -0.14900
F749        F  0.64478534  0.92393698  0.92939648    -0.14900
F750        F  0.62053852  0.85428683  0.89405204    -0.12540
C751        C  0.58404953  0.99125452  0.95214325     0.25470
C752        C  0.60886454  0.02809268  0.93824461    -0.22630
C753        C  0.59717804  0.05474222  0.93994381     0.20380
C754        C  0.56274802  0.04550857  0.95861549     0.25420
C755        C  0.53984318  0.00968528  0.97584129    -0.22580
C756        C  0.55009765  0.98232348  0.97098884     0.20320
F757        F  0.52781375  0.94715347  0.98624809    -0.12540
F758        F  0.59330651  0.96411225  0.94946054    -0.14900
F759        F  0.55291564  0.07215173  0.96229222    -0.14900
F760        F  0.61992795  0.09028000  0.92595827    -0.12540
C761        C  0.79083164  0.63600077  0.58326936     0.25470
C762        C  0.80422196  0.66643192  0.61264247    -0.22630
C763        C  0.80747419  0.70027376  0.59911906     0.20380
C764        C  0.79520079  0.70282191  0.55783626     0.25420
C765        C  0.77960157  0.67151396  0.52921444    -0.22580
C766        C  0.77873918  0.63848351  0.54202517     0.20320
F767        F  0.76453661  0.60774313  0.51540794    -0.12540
F768        F  0.78807586  0.60319226  0.59486201    -0.14900
F769        F  0.79739082  0.73550837  0.54655681    -0.14900
F770        F  0.82128877  0.73049066  0.62644315    -0.12540
C771        C  0.85971847  0.62892208  0.77617661     0.25470
C772        C  0.87349054  0.65971625  0.80537615    -0.22630
C773        C  0.87249761  0.69191666  0.79310377     0.20380
C774        C  0.86055476  0.69424478  0.75162399     0.25420
C775        C  0.84894803  0.66433175  0.72180728    -0.22580
C776        C  0.84738719  0.63118578  0.73494263     0.20320
F777        F  0.83511749  0.60133697  0.70734829    -0.12540
F778        F  0.85936393  0.59698050  0.78685670    -0.14900
F779        F  0.86192383  0.72645214  0.74008411    -0.14900
F780        F  0.88484214  0.72200138  0.82043007    -0.12540
C781        C  0.51795005  0.54396176  0.88490138     0.25470
C782        C  0.54597516  0.53823622  0.86736848    -0.22630
C783        C  0.55731059  0.51620541  0.89003312     0.20380
C784        C  0.54207770  0.50176440  0.93029376     0.25420
C785        C  0.51591524  0.50973920  0.94873674    -0.22580
C786        C  0.50373013  0.53052244  0.92532542     0.20320
F787        F  0.47807945  0.53823601  0.94199072    -0.12540
F788        F  0.50536505  0.56415816  0.86393434    -0.14900
F789        F  0.55435215  0.48176448  0.95218072    -0.14900
F790        F  0.58416263  0.50988064  0.87414517    -0.12540
C791        C  0.53119426  0.56586524  0.61575861     0.25470
C792        C  0.54233945  0.54643396  0.64324500    -0.22630
C793        C  0.53828510  0.51201268  0.62880881     0.20380
C794        C  0.52583427  0.49877800  0.58671895     0.25420
C795        C  0.51733696  0.51971958  0.55851148    -0.22580
C796        C  0.51887661  0.55263638  0.57380734     0.20320
F797        F  0.50952809  0.57272795  0.54771019    -0.12540
F798        F  0.53327013  0.59836088  0.62898177    -0.14900
F799        F  0.52404060  0.46659679  0.57280397    -0.14900
F800        F  0.54857029  0.49231869  0.65441710    -0.12540
C801        C  0.71465615  0.59565439  0.70629852     0.25470
C802        C  0.70646091  0.62142532  0.72573878    -0.22630
C803        C  0.73419101  0.65990217  0.72761404     0.20380
C804        C  0.76859294  0.67273228  0.70741514     0.25420
C805        C  0.77612531  0.64716258  0.68616253    -0.22580
C806        C  0.74960060  0.60839114  0.68736289     0.20320
F807        F  0.75707690  0.58291381  0.66927673    -0.12540
F808        F  0.68856203  0.55827501  0.70497532    -0.14900
F809        F  0.79372633  0.71029343  0.70681901    -0.14900
F810        F  0.72685038  0.68545981  0.74593742    -0.12540
C811        C  0.59804916  0.71691314  0.78022634     0.25470
C812        C  0.62552995  0.70631815  0.77895382    -0.22630
C813        C  0.66301021  0.73316296  0.79082276     0.20380
C814        C  0.67201124  0.76824531  0.80761406     0.25420
C815        C  0.64402749  0.77759087  0.81241909    -0.22580
C816        C  0.60732956  0.75248060  0.79682211     0.20320
F817        F  0.58006685  0.76146247  0.80012538    -0.12540
F818        F  0.56184551  0.69219400  0.76794130    -0.14900
F819        F  0.70794930  0.79256925  0.82119619    -0.14900
F820        F  0.69089331  0.72498211  0.78812197    -0.12540
C821        C  0.15192605  0.78557511  0.41680538     0.25470
C822        C  0.14106665  0.80745365  0.39351690    -0.22630
C823        C  0.11906494  0.82013480  0.41348511     0.20380
C824        C  0.10538630  0.80832067  0.45480270     0.25420
C825        C  0.11399806  0.78407497  0.47696930    -0.22580
C826        C  0.13877407  0.77418859  0.45828156     0.20320
F827        F  0.14800689  0.75108821  0.47869000    -0.12540
F828        F  0.17358517  0.77339151  0.39837020    -0.14900
F829        F  0.08243423  0.81932158  0.47233486    -0.14900
F830        F  0.10868708  0.84182599  0.39193920    -0.12540
C831        C  0.11335130  0.81561674  0.76187621     0.25470
C832        C  0.13709744  0.80564719  0.78287951    -0.22630
C833        C  0.14944968  0.78426213  0.76056129     0.20380
C834        C  0.13619937  0.77099383  0.71862607     0.25420
C835        C  0.11082442  0.77944221  0.69828333    -0.22580
C836        C  0.10055369  0.80294416  0.71994435     0.20320
F837        F  0.07636795  0.81203766  0.70158342    -0.12540
F838        F  0.10141684  0.83665364  0.78265507    -0.14900
F839        F  0.14728727  0.74896911  0.69852086    -0.14900
F840        F  0.17270271  0.77458255  0.78015541    -0.12540
C841        C  0.88298990  0.65474568  0.62830312     0.25470
C842        C  0.87695460  0.68183928  0.64829856    -0.22630
C843        C  0.90552860  0.71998366  0.64794515     0.20380
C844        C  0.94068430  0.73051206  0.63067582     0.25420
C845        C  0.94764599  0.70286452  0.61416745    -0.22580
C846        C  0.91816899  0.66513657  0.61165774     0.20320
F847        F  0.92381371  0.63812044  0.59420309    -0.12540
F848        F  0.85553575  0.61788157  0.62696841    -0.14900
F849        F  0.96868950  0.76719922  0.63314323    -0.14900
F850        F  0.89999497  0.74678098  0.66611657    -0.12540
C851        C  0.97629211  0.56084153  0.50644571     0.25470
C852        C  0.99786076  0.54404045  0.51546038    -0.22630
C853        C  0.03033967  0.56399748  0.54185966     0.20380
C854        C  0.04105494  0.59993114  0.55834400     0.25420
C855        C  0.02078036  0.61747270  0.54673071    -0.22580
C856        C  0.98795566  0.59728910  0.52116522     0.20320
F857        F  0.96718821  0.61295143  0.50984818    -0.12540
F858        F  0.94442589  0.54250230  0.48180101    -0.14900
F859        F  0.07262214  0.61844732  0.58348064    -0.14900
F860        F  0.05349633  0.55034394  0.54902546    -0.12540
C861        C  0.90043966  0.20103244  0.56301122     0.25470
C862        C  0.87941467  0.20511389  0.52989327    -0.22630
C863        C  0.84128623  0.19332991  0.53707253     0.20380
C864        C  0.82546170  0.18040140  0.57735886     0.25420
C865        C  0.84733219  0.17879087  0.61113464    -0.22580
C866        C  0.88453017  0.18808807  0.60318653     0.20320
F867        F  0.90615983  0.18646617  0.63520428    -0.12540
F868        F  0.93704276  0.21135205  0.55739634    -0.14900
F869        F  0.78971242  0.17233017  0.58419130    -0.14900
F870        F  0.81974096  0.19616227  0.50587230    -0.12540
C871        C  0.86727103  0.23203896  0.27638789     0.25470
C872        C  0.87641283  0.21171420  0.30508781    -0.22630
C873        C  0.87006357  0.17608761  0.29182970     0.20380
C874        C  0.85700813  0.16226274  0.24995759     0.25420
C875        C  0.85041071  0.18391800  0.22072114    -0.22580
C876        C  0.85459724  0.21832561  0.23468792     0.20320
F877        F  0.84775477  0.23950799  0.20731933    -0.12540
F878        F  0.87225265  0.26617200  0.28780762    -0.14900
F879        F  0.85266527  0.12866345  0.23729975    -0.14900
F880        F  0.87785920  0.15526090  0.31870985    -0.12540
C881        C  0.99915094  0.43659668  0.46400706     0.25470
C882        C  0.97174248  0.44205999  0.48352900    -0.22630
C883        C  0.93431788  0.41186505  0.48477660     0.20380
C884        C  0.92490089  0.37614010  0.46916011     0.25420
C885        C  0.95306561  0.36991182  0.45342839    -0.22580
C886        C  0.99006721  0.40060554  0.44985590     0.20320
F887        F  0.01756573  0.39562904  0.43321749    -0.12540
F888        F  0.03506231  0.46572839  0.46039090    -0.14900
F889        F  0.88881516  0.34716224  0.47211829    -0.14900
F890        F  0.90714485  0.41665528  0.50264050    -0.12540
C891        C  0.35966209  0.15607789  0.24251051     0.25470
C892        C  0.32461996  0.14179550  0.22139217    -0.22630
C893        C  0.29164255  0.11658551  0.24282817     0.20380
C894        C  0.29356880  0.10386482  0.28346552     0.25420
C895        C  0.32871826  0.11587991  0.30357656    -0.22580
C896        C  0.36174541  0.14310980  0.28328747     0.20320
F897        F  0.39612163  0.15612641  0.30208471    -0.12540
F898        F  0.39193555  0.18079223  0.22262748    -0.14900
F899        F  0.26091183  0.07808321  0.30191433    -0.14900
F900        F  0.25737618  0.10287853  0.22346566    -0.12540
C901        C  0.34240278  0.18251256  0.07863638     0.25470
C902        C  0.31926330  0.18197096  0.11175162    -0.22630
C903        C  0.28968463  0.18823035  0.10195417     0.20380
C904        C  0.28465046  0.19723628  0.06029665     0.25420
C905        C  0.30950619  0.20061502  0.02758197    -0.22580
C906        C  0.33760375  0.19176914  0.03686934     0.20320
F907        F  0.36182084  0.19405681  0.00618590    -0.12540
F908        F  0.37122856  0.17659273  0.08729530    -0.14900
F909        F  0.25663328  0.20461484  0.05271842    -0.14900
F910        F  0.26651715  0.18711983  0.13334106    -0.12540
C911        C  0.34037541  0.10336157  0.14319031     0.25470
C912        C  0.31291831  0.11351886  0.14726469    -0.22630
C913        C  0.27622749  0.08897928  0.13127833     0.20380
C914        C  0.26640177  0.05325896  0.11479817     0.25420
C915        C  0.29328349  0.04187340  0.11416036    -0.22580
C916        C  0.33078891  0.06802881  0.12666410     0.20320
F917        F  0.35809190  0.05897417  0.12464255    -0.12540
F918        F  0.37632762  0.12716535  0.15712036    -0.14900
F919        F  0.23019370  0.02914779  0.10199510    -0.14900
F920        F  0.24944012  0.09865184  0.13411480    -0.12540
C921        C  0.13747922  0.36481119  0.21309250     0.25470
C922        C  0.11178611  0.33134691  0.19061008    -0.22630
C923        C  0.10046844  0.29651840  0.20976572     0.20380
C924        C  0.11269341  0.29524647  0.25131295     0.25420
C925        C  0.13684177  0.32859799  0.27448085    -0.22580
C926        C  0.15009546  0.36340686  0.25462839     0.20320
F927        F  0.17366741  0.39606199  0.27627234    -0.12540
F928        F  0.14957437  0.39890778  0.19543092    -0.14900
F929        F  0.09978268  0.26125928  0.26961460    -0.14900
F930        F  0.07573874  0.26352877  0.18938812    -0.12540
C931        C  0.18812131  0.35495321  0.41501321     0.25470
C932        C  0.18288058  0.32811085  0.38328515    -0.22630
C933        C  0.18837395  0.29837415  0.39421681     0.20380
C934        C  0.20066337  0.29639170  0.43551497     0.25420
C935        C  0.20817171  0.32446419  0.46681511    -0.22580
C936        C  0.20079530  0.35326205  0.45641797     0.20320
F937        F  0.20709260  0.38057700  0.48577473    -0.12540
F938        F  0.18285348  0.38389083  0.40528936    -0.14900
F939        F  0.20689172  0.26784828  0.44405987    -0.14900
F940        F  0.18300811  0.27175871  0.36433361    -0.12540
C941        C  0.08859221  0.27998942  0.36463942     0.25470
C942        C  0.11080461  0.31656642  0.34893033    -0.22630
C943        C  0.09869704  0.34248775  0.35385454     0.20380
C944        C  0.06363491  0.33137321  0.37115804     0.25420
C945        C  0.03990284  0.29396705  0.38391600    -0.22580
C946        C  0.05330259  0.26874152  0.38222540     0.20320
F947        F  0.03140632  0.23267338  0.39504656    -0.12540
F948        F  0.10000335  0.25457964  0.36050452    -0.14900
F949        F  0.05257128  0.35713364  0.37442330    -0.14900
F950        F  0.12031200  0.37835670  0.34028400    -0.12540
C951        C  0.43376251  0.46720225  0.06780065     0.25470
C952        C  0.46946078  0.47290928  0.05847615    -0.22630
C953        C  0.49250187  0.47301831  0.09203102     0.20380
C954        C  0.47832929  0.46340243  0.13347104     0.25420
C955        C  0.44096475  0.45373343  0.14187231    -0.22580
C956        C  0.41964862  0.45791639  0.10922219     0.20320
F957        F  0.38426123  0.45083967  0.11661945    -0.12540
F958        F  0.41165962  0.46833797  0.03601389    -0.14900
F959        F  0.50008911  0.46040301  0.16426058    -0.14900
F960        F  0.52690976  0.47788808  0.08366087    -0.12540
C961        C  0.47047717  0.43852304  0.38463585     0.25470
C962        C  0.44509769  0.44677654  0.36400239    -0.22630
C963        C  0.43616015  0.47182667  0.38445982     0.20380
C964        C  0.45002987  0.48600380  0.42571855     0.25420
C965        C  0.47327208  0.47576397  0.44734995    -0.22580
C966        C  0.48456746  0.45306320  0.42598446     0.20320
F967        F  0.50739490  0.44312985  0.44610132    -0.12540
F968        F  0.48051152  0.41522934  0.36561811    -0.14900
F969        F  0.43919076  0.50836367  0.44548412    -0.14900
F970        F  0.41235715  0.48118892  0.36560881    -0.12540
C971        C  0.24885922  0.33257421  0.26387654     0.25470
C972        C  0.27994549  0.36911469  0.27149972    -0.22630
C973        C  0.27489242  0.39529992  0.29542254     0.20380
C974        C  0.24045560  0.38410781  0.31470933     0.25420
C975        C  0.21038331  0.34688636  0.30974732    -0.22580
C976        C  0.21420371  0.32163002  0.28269542     0.20320
F977        F  0.18513881  0.28573440  0.27670660    -0.12540
F978        F  0.25244216  0.30691703  0.23984337    -0.14900
F979        F  0.23699137  0.40920618  0.33993201    -0.14900
F980        F  0.30403790  0.43091216  0.30303471    -0.12540
C981        C  0.39093643  0.28208783  0.18914277     0.25470
C982        C  0.36952610  0.28723015  0.22035774    -0.22630
C983        C  0.33634862  0.25561369  0.23490121     0.20380
C984        C  0.32348057  0.21990670  0.21619649     0.25420
C985        C  0.34406851  0.21525704  0.18342266    -0.22580
C986        C  0.37847352  0.24643435  0.17113153     0.20320
F987        F  0.39944119  0.24262914  0.14033753    -0.12540
F988        F  0.42340137  0.31186457  0.17495888    -0.14900
F989        F  0.28966545  0.19056882  0.22788639    -0.14900
F990        F  0.31476209  0.25971975  0.26463354    -0.12540
loop_ 
_geom_bond_atom_site_label_1 
_geom_bond_atom_site_label_2 
_geom_bond_distance 
_geom_bond_site_symmetry_2 
_ccdc_geom_bond_type 
In1           O3   2.233       .  S
In1           O4   2.253       .  S
In1          O12   2.244       .  S
In1           O6   2.239       .  S
In1           O8   2.248       .  S
In1           O9   2.269       .  S
In1          O10   2.241       .  S
In1          O13   2.231       .  S
C2            O8   1.260       .  A
C2           O10   1.257       .  A
C2          C972   1.475       .  S
O3           C11   1.262       .  A
O4           C11   1.263       .  A
C5           O12   1.260       .  A
C5            O6   1.261       .  A
C5          C955   1.479       .  S
C7            O9   1.260       .  A
C7           O13   1.255       .  A
C7          C962   1.482       .  S
C11         C982   1.477       .  S
C14          C15   1.355       .  D
C14         C932   1.489       .  S
C14         C975   1.480       .  S
C15         C925   1.489       .  S
C15         C942   1.481       .  S
C16          C17   1.357       .  D
C16         C902   1.488       .  S
C16         C985   1.487       .  S
C17         C892   1.487       .  S
C17         C912   1.482       .  S
In18         O20   2.262       .  S
In18         O21   2.234       .  S
In18         O29   2.249       .  S
In18         O23   2.255       .  S
In18         O25   2.263       .  S
In18         O26   2.257       .  S
In18         O27   2.213       .  S
In18         O30   2.235       .  S
C19          O25   1.265   1_455  A
C19          O27   1.260   1_455  A
C19         C945   1.477       .  S
O20          C28   1.261       .  A
O21          C28   1.258       .  A
C22          O29   1.258       .  A
C22          O23   1.260       .  A
C22         C862   1.486       .  S
C24          O26   1.261       .  A
C24          O30   1.258       .  A
C24         C885   1.473       .  S
C28         C872   1.485       .  S
In31         O33   2.229       .  S
In31         O34   2.252       .  S
In31         O42   2.249       .  S
In31         O36   2.249       .  S
In31         O38   2.256       .  S
In31         O39   2.260       .  S
In31         O40   2.226   1_455  S
In31         O43   2.238       .  S
C32          O38   1.262   1_655  A
C32          O40   1.259       .  A
C32         C845   1.469       .  S
O33          C41   1.262       .  A
O34          C41   1.264       .  A
C35          O42   1.259       .  A
C35          O36   1.259       .  A
C35         C825   1.480       .  S
C37          O39   1.260       .  A
C37          O43   1.258       .  A
C37         C835   1.482       .  S
C41         C855   1.479       .  S
In44         O46   2.235       .  S
In44         O47   2.270       .  S
In44         O55   2.246       .  S
In44         O49   2.239       .  S
In44         O51   2.276       .  S
In44         O52   2.240       .  S
In44         O53   2.217       .  S
In44         O56   2.251       .  S
C45          O51   1.264       .  A
C45          O53   1.257       .  A
C45         C812   1.481       .  S
O46          C54   1.256       .  A
O47          C54   1.258       .  A
C48          O55   1.262       .  A
C48          O49   1.262       .  A
C48         C792   1.480       .  S
C50          O52   1.258       .  A
C50          O56   1.260       .  A
C50         C802   1.468       .  S
C54         C782   1.483       .  S
C57          C58   1.356       .  D
C57         C775   1.490       .  S
C57         C842   1.481       .  S
C58         C762   1.490       .  S
C58         C805   1.481       .  S
In59         O61   2.237       .  S
In59         O62   2.258   1_545  S
In59         O70   2.238       .  S
In59         O64   2.255       .  S
In59         O66   2.272       .  S
In59         O67   2.262       .  S
In59         O68   2.221       .  S
In59         O71   2.245       .  S
C60          O66   1.263       .  A
C60          O68   1.256       .  A
C60         C752   1.481       .  S
O61          C69   1.260   1_545  A
O62          C69   1.261       .  A
C63          O70   1.262       .  A
C63          O64   1.263       .  A
C63         C735   1.480       .  S
C65          O67   1.258       .  A
C65          O71   1.257       .  A
C65         C722   1.484   1_556  S
C69         C745   1.471       .  S
C72          C73   1.357       .  D
C72         C702   1.487       .  S
C72         C815   1.483       .  S
C73         C712   1.488       .  S
C73         C742   1.487       .  S
C74          C75   1.361       .  D
C74         C692   1.487       .  S
C74         C882   1.484       .  S
C75         C685   1.489       .  S
C75         C852   1.496       .  S
In76         O78   2.251       .  S
In76         O79   2.255       .  S
In76         O87   2.245       .  S
In76         O81   2.236       .  S
In76         O83   2.271       .  S
In76         O84   2.259       .  S
In76         O85   2.218       .  S
In76         O88   2.242       .  S
C77          O83   1.263   1_545  A
C77          O85   1.256   1_545  A
C77         C915   1.479       .  S
O78          C86   1.257       .  A
O79          C86   1.259       .  A
C80          O87   1.263       .  A
C80          O81   1.263       .  A
C80         C662   1.483   1_554  S
C82          O84   1.260       .  A
C82          O88   1.259       .  A
C82         C675   1.475       .  S
C86         C652   1.483       .  S
C89          C90   1.359   1_544  D
C89         C645   1.489       .  S
C89         C755   1.483   1_554  S
C90         C632   1.489       .  S
C90         C672   1.486   1_556  S
In91         O93   2.227       .  S
In91         O94   2.263       .  S
In91        O102   2.263       .  S
In91         O96   2.247       .  S
In91         O98   2.256       .  S
In91         O99   2.257       .  S
In91        O100   2.229       .  S
In91        O103   2.248       .  S
C92          O98   1.263       .  A
C92         O100   1.261       .  A
C92         C622   1.479       .  S
O93         C101   1.259       .  A
O94         C101   1.263       .  A
C95         O102   1.260       .  A
C95          O96   1.258       .  A
C95         C935   1.487       .  S
C97          O99   1.260       .  A
C97         O103   1.260       .  A
C97         C605   1.485       .  S
C101        C615   1.477       .  S
C104        C105   1.356       .  D
C104        C572   1.485       .  S
C104        C592   1.483       .  S
C105        C582   1.487       .  S
C105        C625   1.484       .  S
In106       O108   2.272       .  S
In106       O109   2.242       .  S
In106       O117   2.240       .  S
In106       O111   2.264       .  S
In106       O113   2.270       .  S
In106       O114   2.257       .  S
In106       O115   2.211       .  S
In106       O118   2.239       .  S
C107        O113   1.265       .  A
C107        O115   1.260       .  A
C107        C562   1.478       .  S
O108        C116   1.261       .  A
O109        C116   1.258       .  A
C110        O117   1.259       .  A
C110        O111   1.261       .  A
C110        C765   1.487       .  S
C112        O114   1.262       .  A
C112        O118   1.259       .  A
C112        C552   1.474       .  S
C116        C542   1.488       .  S
C119        C120   1.358       .  D
C119        C522   1.487       .  S
C119        C565   1.482       .  S
C120        C512   1.493       .  S
C120        C532   1.483       .  S
C121        C122   1.355       .  D
C121        C612   1.485       .  S
C121        C965   1.484       .  S
C122        C555   1.484       .  S
C122        C795   1.484       .  S
In123       O125   2.256       .  S
In123       O126   2.251   1_565  S
In123       O134   2.246   1_565  S
In123       O128   2.264       .  S
In123       O130   2.267       .  S
In123       O131   2.252   1_565  S
In123       O132   2.225       .  S
In123       O135   2.226   1_565  S
C124        O130   1.263       .  A
C124        O132   1.256       .  A
C124        C505   1.471       .  S
O125        C133   1.258   1_565  A
O126        C133   1.259       .  A
C127        O134   1.258   1_565  A
C127        O128   1.260       .  A
C127        C495   1.484       .  S
C129        O131   1.265       .  A
C129        O135   1.261       .  A
C129        C595   1.472       .  S
C133        C635   1.486       .  S
In136       O138   2.222   1_565  S
In136       O139   2.262   1_565  S
In136       O147   2.252   1_565  S
In136       O141   2.250       .  S
In136       O143   2.266       .  S
In136       O144   2.259   1_565  S
In136       O145   2.226       .  S
In136       O148   2.261       .  S
C137        O143   1.261       .  A
C137        O145   1.256       .  A
C137        C535   1.469       .  S
O138        C146   1.262       .  A
O139        C146   1.266       .  A
C140        O147   1.260   1_565  A
C140        O141   1.259       .  A
C140        C642   1.481       .  S
C142        O144   1.259   1_565  A
C142        O148   1.258       .  A
C142        C475   1.489       .  S
C146        C482   1.480       .  S
In149       O151   2.238       .  S
In149       O152   2.265       .  S
In149       O160   2.271       .  S
In149       O154   2.241       .  S
In149       O156   2.255       .  S
In149       O157   2.265       .  S
In149       O158   2.238       .  S
In149       O161   2.215       .  S
C150        O156   1.262   1_655  A
C150        O158   1.259   1_655  A
C150        C462   1.472       .  S
O151        C159   1.258       .  A
O152        C159   1.261       .  A
C153        O160   1.260       .  A
C153        O154   1.257       .  A
C153        C442   1.487   1_554  S
C155        O157   1.264       .  A
C155        O161   1.260       .  A
C155        C452   1.475       .  S
C159        C922   1.484       .  S
In162       O164   2.237       .  S
In162       O165   2.255       .  S
In162       O173   2.245       .  S
In162       O167   2.265       .  S
In162       O169   2.264       .  S
In162       O170   2.250       .  S
In162       O171   2.219       .  S
In162       O174   2.261       .  S
C163        O169   1.264       .  A
C163        O171   1.261       .  A
C163        C432   1.475   1_655  S
O164        C172   1.259       .  A
O165        C172   1.262       .  A
C166        O173   1.258       .  A
C166        O167   1.260       .  A
C166        C412   1.485   1_556  S
C168        O170   1.257       .  A
C168        O174   1.259       .  A
C168        C772   1.486       .  S
C172        C422   1.471       .  S
C175        C176   1.355   1_556  D
C175        C402   1.485       .  S
C175        C455   1.483   1_656  S
C176        C392   1.484       .  S
C176        C425   1.482   1_554  S
C177        C178   1.356       .  D
C177        C435   1.483       .  S
C177        C832   1.485       .  S
C178        C502   1.484       .  S
C178        C665   1.486       .  S
C179        C180   1.357       .  D
C179        C465   1.484       .  S
C179        C875   1.485       .  S
C180        C485   1.485       .  S
C180        C725   1.487       .  S
In181       O183   2.234       .  S
In181       O184   2.255       .  S
In181       O192   2.246       .  S
In181       O186   2.244       .  S
In181       O188   2.272       .  S
In181       O189   2.249       .  S
In181       O190   2.226       .  S
In181       O193   2.248       .  S
C182        O188   1.263       .  A
C182        O190   1.257       .  A
C182        C382   1.483       .  S
O183        C191   1.260       .  A
O184        C191   1.261       .  A
C185        O192   1.262       .  A
C185        O186   1.263       .  A
C185        C905   1.485   1_556  S
C187        O189   1.260       .  A
C187        O193   1.260       .  A
C187        C585   1.484       .  S
C191        C372   1.472       .  S
C194        C195   1.358       .  D
C194        C385   1.485       .  S
C194        C602   1.489       .  S
C195        C362   1.485       .  S
C195        C445   1.489       .  S
In196       O198   2.241       .  S
In196       O199   2.248       .  S
In196       O207   2.237       .  S
In196       O201   2.271       .  S
In196       O203   2.257       .  S
In196       O204   2.266       .  S
In196       O205   2.236       .  S
In196       O208   2.228       .  S
C197        O203   1.261       .  A
C197        O205   1.260       .  A
C197        C352   1.469       .  S
O198        C206   1.262       .  A
O199        C206   1.262       .  A
C200        O207   1.256       .  A
C200        O201   1.259       .  A
C200        C705   1.484   1_554  S
C202        O204   1.262       .  A
C202        O208   1.257       .  A
C202        C342   1.477       .  S
C206        C525   1.478       .  S
C209        C210   1.366   1_554  D
C209        C375   1.510   1_554  S
C209        C952   1.489       .  S
C210        C345   1.488   1_556  S
C210        C785   1.484       .  S
In211       O213   2.235   1_655  S
In211       O214   2.267       .  S
In211       O222   2.256       .  S
In211       O216   2.239   1_655  S
In211       O218   2.259   1_655  S
In211       O219   2.252       .  S
In211       O220   2.251   1_655  S
In211       O223   2.228       .  S
C212        O218   1.260       .  A
C212        O220   1.257       .  A
C212        C365   1.481       .  S
O213        C221   1.256   1_455  A
O214        C221   1.260       .  A
C215        O222   1.260       .  A
C215        O216   1.262   1_655  A
C215        C695   1.482       .  S
C217        O219   1.264       .  A
C217        O223   1.261       .  A
C217        C332   1.473       .  S
C221        C405   1.482       .  S
C224        C225   1.359       .  D
C224        C335   1.487       .  S
C224        C865   1.490       .  S
C225        C322   1.484       .  S
C225        C732   1.489       .  S
In226       O228   2.241       .  S
In226       O229   2.241       .  S
In226       O237   2.257       .  S
In226       O231   2.242       .  S
In226       O233   2.264       .  S
In226       O234   2.252       .  S
In226       O235   2.233       .  S
In226       O238   2.251       .  S
C227        O233   1.262       .  A
C227        O235   1.257       .  A
C227        C325   1.478   1_565  S
O228        C236   1.262       .  A
O229        C236   1.261       .  A
C230        O237   1.260       .  A
C230        O231   1.260       .  A
C230        C515   1.485       .  S
C232        O234   1.259       .  A
C232        O238   1.259       .  A
C232        C715   1.485       .  S
C236        C315   1.478       .  S
In239       O241   2.235       .  S
In239       O242   2.267       .  S
In239       O250   2.268       .  S
In239       O244   2.234       .  S
In239       O246   2.249       .  S
In239       O247   2.267       .  S
In239       O248   2.245       .  S
In239       O251   2.214       .  S
C240        O246   1.261   1_565  A
C240        O248   1.260   1_565  A
C240        C302   1.472       .  S
O241        C249   1.257       .  A
O242        C249   1.260       .  A
C243        O250   1.259       .  A
C243        O244   1.256       .  A
C243        C575   1.483       .  S
C245        O247   1.263       .  A
C245        O251   1.260       .  A
C245        C292   1.469       .  S
C249        C895   1.484       .  S
In252       O254   2.220       .  S
In252       O255   2.268       .  S
In252       O263   2.260       .  S
In252       O257   2.234   1_655  S
In252       O259   2.251   1_655  S
In252       O260   2.256       .  S
In252       O261   2.231   1_655  S
In252       O264   2.241   1_655  S
C253        O259   1.262       .  A
C253        O261   1.261       .  A
C253        C282   1.476       .  S
O254        C262   1.259       .  A
O255        C262   1.263       .  A
C256        O263   1.260       .  A
C256        O257   1.258   1_655  A
C256        C395   1.482       .  S
C258        O260   1.261       .  A
C258        O264   1.258   1_655  A
C258        C682   1.482       .  S
C262        C272   1.476       .  S
C265        C266   1.359       .  D
C265        C355   1.487       .  S
C265        C545   1.491       .  S
C266        C275   1.484       .  S
C266        C415   1.491       .  S
C267        C268   1.355       .  D
C267        C285   1.484       .  S
C267        C822   1.486       .  S
C268        C305   1.482       .  S
C268        C655   1.485       .  S
C269        C270   1.357       .  D
C269        C295   1.480   1_565  S
C269        C492   1.490       .  S
C270        C312   1.483       .  S
C270        C472   1.491       .  S
C271        C272   1.406       .  A
C271        C276   1.392       .  A
C271        F278   1.358       .  S
C272        C273   1.408       .  A
C273        C274   1.404       .  A
C273        F280   1.357       .  S
C274        C275   1.406       .  A
C274        F279   1.357       .  S
C275        C276   1.402       .  A
C276        F277   1.357       .  S
C281        C282   1.408       .  A
C281        C286   1.401       .  A
C281        F288   1.357       .  S
C282        C283   1.406       .  A
C283        C284   1.394       .  A
C283        F290   1.358       .  S
C284        C285   1.404       .  A
C284        F289   1.357       .  S
C285        C286   1.405       .  A
C286        F287   1.357       .  S
C291        C292   1.403   1_565  A
C291        C296   1.389       .  A
C291        F298   1.357       .  S
C292        C293   1.405       .  A
C293        C294   1.404       .  A
C293        F300   1.357       .  S
C294        C295   1.407       .  A
C294        F299   1.357       .  S
C295        C296   1.401   1_545  A
C296        F297   1.357       .  S
C301        C302   1.407       .  A
C301        C306   1.398       .  A
C301        F308   1.356       .  S
C302        C303   1.403       .  A
C303        C304   1.397       .  A
C303        F310   1.358       .  S
C304        C305   1.405       .  A
C304        F309   1.356       .  S
C305        C306   1.403       .  A
C306        F307   1.357       .  S
C311        C312   1.404       .  A
C311        C316   1.396       .  A
C311        F318   1.357       .  S
C312        C313   1.403       .  A
C313        C314   1.399       .  A
C313        F320   1.357   1_565  S
C314        C315   1.411       .  A
C314        F319   1.358   1_565  S
C315        C316   1.406       .  A
C316        F317   1.358       .  S
C321        C322   1.403       .  A
C321        C326   1.394       .  A
C321        F328   1.357       .  S
C322        C323   1.405       .  A
C323        C324   1.402       .  A
C323        F330   1.357       .  S
C324        C325   1.407       .  A
C324        F329   1.357       .  S
C325        C326   1.408       .  A
C326        F327   1.358       .  S
C331        C332   1.407       .  A
C331        C336   1.400       .  A
C331        F338   1.358       .  S
C332        C333   1.403       .  A
C333        C334   1.394       .  A
C333        F340   1.358       .  S
C334        C335   1.406       .  A
C334        F339   1.357       .  S
C335        C336   1.406       .  A
C336        F337   1.356       .  S
C341        C342   1.408       .  A
C341        C346   1.401       .  A
C341        F348   1.357       .  S
C342        C343   1.407       .  A
C343        C344   1.394       .  A
C343        F350   1.358       .  S
C344        C345   1.403       .  A
C344        F349   1.357       .  S
C345        C346   1.406       .  A
C346        F347   1.357       .  S
C351        C352   1.406       .  A
C351        C356   1.401       .  A
C351        F358   1.358       .  S
C352        C353   1.401       .  A
C353        C354   1.394       .  A
C353        F360   1.358       .  S
C354        C355   1.406       .  A
C354        F359   1.357       .  S
C355        C356   1.407       .  A
C356        F357   1.357       .  S
C361        C362   1.404       .  A
C361        C366   1.401       .  A
C361        F368   1.357       .  S
C362        C363   1.404       .  A
C363        C364   1.397       .  A
C363        F370   1.357       .  S
C364        C365   1.407       .  A
C364        F369   1.358       .  S
C365        C366   1.410       .  A
C366        F367   1.358       .  S
C371        C372   1.402       .  A
C371        C376   1.402       .  A
C371        F378   1.358       .  S
C372        C373   1.398       .  A
C373        C374   1.394   1_556  A
C373        F380   1.359   1_556  S
C374        C375   1.417   1_554  A
C374        F379   1.356       .  S
C375        C376   1.415       .  A
C376        F377   1.350       .  S
C381        C382   1.410       .  A
C381        C386   1.403       .  A
C381        F388   1.357       .  S
C382        C383   1.409       .  A
C383        C384   1.394       .  A
C383        F390   1.358       .  S
C384        C385   1.402       .  A
C384        F389   1.357       .  S
C385        C386   1.405       .  A
C386        F387   1.357       .  S
C391        C392   1.403   1_455  A
C391        C396   1.394       .  A
C391        F398   1.357       .  S
C392        C393   1.403       .  A
C393        C394   1.402       .  A
C393        F400   1.357       .  S
C394        C395   1.410       .  A
C394        F399   1.357       .  S
C395        C396   1.409   1_655  A
C396        F397   1.358       .  S
C401        C402   1.405       .  A
C401        C406   1.402       .  A
C401        F408   1.357       .  S
C402        C403   1.403   1_655  A
C403        C404   1.395       .  A
C403        F410   1.357       .  S
C404        C405   1.409   1_455  A
C404        F409   1.358       .  S
C405        C406   1.409       .  A
C406        F407   1.357       .  S
C411        C412   1.408       .  A
C411        C416   1.396       .  A
C411        F418   1.358       .  S
C412        C413   1.410       .  A
C413        C414   1.404       .  A
C413        F420   1.357       .  S
C414        C415   1.405       .  A
C414        F419   1.357       .  S
C415        C416   1.404       .  A
C416        F417   1.358       .  S
C421        C422   1.407       .  A
C421        C426   1.398       .  A
C421        F428   1.358   1_655  S
C422        C423   1.403       .  A
C423        C424   1.397       .  A
C423        F430   1.358       .  S
C424        C425   1.405       .  A
C424        F429   1.357   1_556  S
C425        C426   1.403       .  A
C426        F427   1.357   1_655  S
C431        C432   1.405       .  A
C431        C436   1.392       .  A
C431        F438   1.358       .  S
C432        C433   1.407       .  A
C433        C434   1.403       .  A
C433        F440   1.357       .  S
C434        C435   1.406       .  A
C434        F439   1.357       .  S
C435        C436   1.402       .  A
C436        F437   1.357       .  S
C441        C442   1.411       .  A
C441        C446   1.404       .  A
C441        F448   1.357       .  S
C442        C443   1.409       .  A
C443        C444   1.396       .  A
C443        F450   1.358       .  S
C444        C445   1.403       .  A
C444        F449   1.357       .  S
C445        C446   1.405       .  A
C446        F447   1.357       .  S
C451        C452   1.406   1_655  A
C451        C456   1.392       .  A
C451        F458   1.358       .  S
C452        C453   1.407       .  A
C453        C454   1.403       .  A
C453        F460   1.357       .  S
C454        C455   1.406       .  A
C454        F459   1.357       .  S
C455        C456   1.402   1_455  A
C456        F457   1.357       .  S
C461        C462   1.407       .  A
C461        C466   1.399       .  A
C461        F468   1.358       .  S
C462        C463   1.403       .  A
C463        C464   1.398       .  A
C463        F470   1.358       .  S
C464        C465   1.406       .  A
C464        F469   1.357       .  S
C465        C466   1.404       .  A
C466        F467   1.357       .  S
C471        C472   1.405   1_545  A
C471        C476   1.399       .  A
C471        F478   1.358       .  S
C472        C473   1.405       .  A
C473        C474   1.403       .  A
C473        F480   1.357       .  S
C474        C475   1.412       .  A
C474        F479   1.358       .  S
C475        C476   1.409   1_565  A
C476        F477   1.358       .  S
C481        C482   1.408       .  A
C481        C486   1.403       .  A
C481        F488   1.357       .  S
C482        C483   1.408       .  A
C483        C484   1.394       .  A
C483        F490   1.358       .  S
C484        C485   1.402       .  A
C484        F489   1.357       .  S
C485        C486   1.406       .  A
C486        F487   1.357       .  S
C491        C492   1.405       .  A
C491        C496   1.403       .  A
C491        F498   1.357       .  S
C492        C493   1.404   1_565  A
C493        C494   1.397       .  A
C493        F500   1.357       .  S
C494        C495   1.408   1_545  A
C494        F499   1.358       .  S
C495        C496   1.409       .  A
C496        F497   1.357       .  S
C501        C502   1.403       .  A
C501        C506   1.397       .  A
C501        F508   1.357       .  S
C502        C503   1.406       .  A
C503        C504   1.398       .  A
C503        F510   1.357       .  S
C504        C505   1.403       .  A
C504        F509   1.358       .  S
C505        C506   1.407       .  A
C506        F507   1.358       .  S
C511        C512   1.406       .  A
C511        C516   1.404       .  A
C511        F518   1.357       .  S
C512        C513   1.407       .  A
C513        C514   1.395       .  A
C513        F520   1.357       .  S
C514        C515   1.407       .  A
C514        F519   1.358       .  S
C515        C516   1.411       .  A
C516        F517   1.357       .  S
C521        C522   1.405       .  A
C521        C526   1.402       .  A
C521        F528   1.357       .  S
C522        C523   1.404       .  A
C523        C524   1.396       .  A
C523        F530   1.357       .  S
C524        C525   1.406       .  A
C524        F529   1.358       .  S
C525        C526   1.408       .  A
C526        F527   1.358       .  S
C531        C532   1.405       .  A
C531        C536   1.398       .  A
C531        F538   1.358       .  S
C532        C533   1.403       .  A
C533        C534   1.396       .  A
C533        F540   1.357       .  S
C534        C535   1.406       .  A
C534        F539   1.358       .  S
C535        C536   1.403       .  A
C536        F537   1.358       .  S
C541        C542   1.410       .  A
C541        C546   1.397       .  A
C541        F548   1.358       .  S
C542        C543   1.411       .  A
C543        C544   1.405       .  A
C543        F550   1.357       .  S
C544        C545   1.405       .  A
C544        F549   1.357       .  S
C545        C546   1.404       .  A
C546        F547   1.358       .  S
C551        C552   1.407       .  A
C551        C556   1.399       .  A
C551        F558   1.358       .  S
C552        C553   1.404       .  A
C553        C554   1.399       .  A
C553        F560   1.358       .  S
C554        C555   1.405       .  A
C554        F559   1.357       .  S
C555        C556   1.403       .  A
C556        F557   1.357       .  S
C561        C562   1.407       .  A
C561        C566   1.391       .  A
C561        F568   1.358       .  S
C562        C563   1.408       .  A
C563        C564   1.404       .  A
C563        F570   1.357       .  S
C564        C565   1.406       .  A
C564        F569   1.357       .  S
C565        C566   1.402       .  A
C566        F567   1.357       .  S
C571        C572   1.403       .  A
C571        C576   1.395       .  A
C571        F578   1.356       .  S
C572        C573   1.404       .  A
C573        C574   1.402       .  A
C573        F580   1.357       .  S
C574        C575   1.410       .  A
C574        F579   1.357       .  S
C575        C576   1.409       .  A
C576        F577   1.358       .  S
C581        C582   1.404       .  A
C581        C586   1.400       .  A
C581        F588   1.356       .  S
C582        C583   1.404       .  A
C583        C584   1.397       .  A
C583        F590   1.357       .  S
C584        C585   1.409       .  A
C584        F589   1.358       .  S
C585        C586   1.410       .  A
C586        F587   1.357       .  S
C591        C592   1.406       .  A
C591        C596   1.398       .  A
C591        F598   1.356       .  S
C592        C593   1.403       .  A
C593        C594   1.398       .  A
C593        F600   1.357       .  S
C594        C595   1.407       .  A
C594        F599   1.358       .  S
C595        C596   1.403       .  A
C596        F597   1.358       .  S
C601        C602   1.404       .  A
C601        C606   1.397       .  A
C601        F608   1.357       .  S
C602        C603   1.405       .  A
C603        C604   1.403       .  A
C603        F610   1.357       .  S
C604        C605   1.410       .  A
C604        F609   1.357       .  S
C605        C606   1.408       .  A
C606        F607   1.358       .  S
C611        C612   1.406       .  A
C611        C616   1.402       .  A
C611        F618   1.357       .  S
C612        C613   1.403       .  A
C613        C614   1.394       .  A
C613        F620   1.357       .  S
C614        C615   1.406       .  A
C614        F619   1.358       .  S
C615        C616   1.407       .  A
C616        F617   1.357       .  S
C621        C622   1.408       .  A
C621        C626   1.402       .  A
C621        F628   1.357       .  S
C622        C623   1.407       .  A
C623        C624   1.394       .  A
C623        F630   1.358       .  S
C624        C625   1.403       .  A
C624        F629   1.357       .  S
C625        C626   1.405       .  A
C626        F627   1.356       .  S
C631        C632   1.404   1_545  A
C631        C636   1.397       .  A
C631        F638   1.358       .  S
C632        C633   1.405       .  A
C633        C634   1.401       .  A
C633        F640   1.357       .  S
C634        C635   1.411   1_565  A
C634        F639   1.358       .  S
C635        C636   1.409       .  A
C636        F637   1.358       .  S
C641        C642   1.406   1_545  A
C641        C646   1.397       .  A
C641        F648   1.358       .  S
C642        C643   1.409       .  A
C643        C644   1.402       .  A
C643        F650   1.358       .  S
C644        C645   1.405   1_565  A
C644        F649   1.357       .  S
C645        C646   1.405       .  A
C646        F647   1.357       .  S
C651        C652   1.410       .  A
C651        C656   1.401       .  A
C651        F658   1.358       .  S
C652        C653   1.407       .  A
C653        C654   1.397       .  A
C653        F660   1.358       .  S
C654        C655   1.405       .  A
C654        F659   1.356       .  S
C655        C656   1.403       .  A
C656        F657   1.357       .  S
C661        C662   1.407       .  A
C661        C666   1.395       .  A
C661        F668   1.358       .  S
C662        C663   1.412       .  A
C663        C664   1.402       .  A
C663        F670   1.358       .  S
C664        C665   1.403       .  A
C664        F669   1.357       .  S
C665        C666   1.404       .  A
C666        F667   1.357       .  S
C671        C672   1.405       .  A
C671        C676   1.394       .  A
C671        F678   1.357   1_554  S
C672        C673   1.405       .  A
C673        C674   1.402       .  A
C673        F680   1.357   1_565  S
C674        C675   1.409       .  A
C674        F679   1.358   1_565  S
C675        C676   1.404       .  A
C676        F677   1.358       .  S
C681        C682   1.409       .  A
C681        C686   1.402       .  A
C681        F688   1.358       .  S
C682        C683   1.409   1_655  A
C683        C684   1.396       .  A
C683        F690   1.358       .  S
C684        C685   1.403   1_455  A
C684        F689   1.358       .  S
C685        C686   1.405       .  A
C686        F687   1.357       .  S
C691        C692   1.404       .  A
C691        C696   1.404       .  A
C691        F698   1.357       .  S
C692        C693   1.406   1_655  A
C693        C694   1.394       .  A
C693        F700   1.356       .  S
C694        C695   1.405   1_455  A
C694        F699   1.358       .  S
C695        C696   1.411       .  A
C696        F697   1.358       .  S
C701        C702   1.403       .  A
C701        C706   1.394       .  A
C701        F708   1.357       .  S
C702        C703   1.405       .  A
C703        C704   1.404       .  A
C703        F710   1.357       .  S
C704        C705   1.411       .  A
C704        F709   1.357       .  S
C705        C706   1.409       .  A
C706        F707   1.358       .  S
C711        C712   1.404       .  A
C711        C716   1.401       .  A
C711        F718   1.357       .  S
C712        C713   1.404       .  A
C713        C714   1.397       .  A
C713        F720   1.358       .  S
C714        C715   1.409       .  A
C714        F719   1.358       .  S
C715        C716   1.411       .  A
C716        F717   1.358       .  S
C721        C722   1.411       .  A
C721        C726   1.402       .  A
C721        F728   1.357       .  S
C722        C723   1.409       .  A
C723        C724   1.396       .  A
C723        F730   1.358       .  S
C724        C725   1.403       .  A
C724        F729   1.357       .  S
C725        C726   1.404       .  A
C726        F727   1.357       .  S
C731        C732   1.406       .  A
C731        C736   1.404       .  A
C731        F738   1.357       .  S
C732        C733   1.404       .  A
C733        C734   1.396       .  A
C733        F740   1.356       .  S
C734        C735   1.406       .  A
C734        F739   1.358       .  S
C735        C736   1.408       .  A
C736        F737   1.358       .  S
C741        C742   1.406       .  A
C741        C746   1.393       .  A
C741        F748   1.357       .  S
C742        C743   1.406       .  A
C743        C744   1.402       .  A
C743        F750   1.357       .  S
C744        C745   1.407       .  A
C744        F749   1.358       .  S
C745        C746   1.401       .  A
C746        F747   1.358       .  S
C751        C752   1.409   1_565  A
C751        C756   1.391       .  A
C751        F758   1.358       .  S
C752        C753   1.410       .  A
C753        C754   1.403       .  A
C753        F760   1.357       .  S
C754        C755   1.404       .  A
C754        F759   1.357       .  S
C755        C756   1.401   1_545  A
C756        F757   1.358       .  S
C761        C762   1.404       .  A
C761        C766   1.398       .  A
C761        F768   1.355       .  S
C762        C763   1.405       .  A
C763        C764   1.403       .  A
C763        F770   1.357       .  S
C764        C765   1.410       .  A
C764        F769   1.358       .  S
C765        C766   1.410       .  A
C766        F767   1.358       .  S
C771        C772   1.409       .  A
C771        C776   1.399       .  A
C771        F778   1.358       .  S
C772        C773   1.409       .  A
C773        C774   1.401       .  A
C773        F780   1.358       .  S
C774        C775   1.404       .  A
C774        F779   1.356       .  S
C775        C776   1.404       .  A
C776        F777   1.356       .  S
C781        C782   1.407       .  A
C781        C786   1.391       .  A
C781        F788   1.358       .  S
C782        C783   1.412       .  A
C783        C784   1.405       .  A
C783        F790   1.357       .  S
C784        C785   1.405       .  A
C784        F789   1.357       .  S
C785        C786   1.405       .  A
C786        F787   1.357       .  S
C791        C792   1.406       .  A
C791        C796   1.396       .  A
C791        F798   1.358       .  S
C792        C793   1.410       .  A
C793        C794   1.401       .  A
C793        F800   1.358       .  S
C794        C795   1.403       .  A
C794        F799   1.357       .  S
C795        C796   1.404       .  A
C796        F797   1.356       .  S
C801        C802   1.402       .  A
C801        C806   1.397       .  A
C801        F808   1.358       .  S
C802        C803   1.406       .  A
C803        C804   1.396       .  A
C803        F810   1.358       .  S
C804        C805   1.403       .  A
C804        F809   1.356       .  S
C805        C806   1.405       .  A
C806        F807   1.355       .  S
C811        C812   1.410       .  A
C811        C816   1.404       .  A
C811        F818   1.357       .  S
C812        C813   1.409       .  A
C813        C814   1.391       .  A
C813        F820   1.358       .  S
C814        C815   1.401       .  A
C814        F819   1.358       .  S
C815        C816   1.405       .  A
C816        F817   1.357       .  S
C821        C822   1.404       .  A
C821        C826   1.397       .  A
C821        F828   1.357       .  S
C822        C823   1.404       .  A
C823        C824   1.400       .  A
C823        F830   1.357       .  S
C824        C825   1.409       .  A
C824        F829   1.358       .  S
C825        C826   1.407       .  A
C826        F827   1.358       .  S
C831        C832   1.403       .  A
C831        C836   1.394       .  A
C831        F838   1.357       .  S
C832        C833   1.404       .  A
C833        C834   1.402       .  A
C833        F840   1.357       .  S
C834        C835   1.410       .  A
C834        F839   1.357       .  S
C835        C836   1.408       .  A
C836        F837   1.358       .  S
C841        C842   1.403       .  A
C841        C846   1.394       .  A
C841        F848   1.356       .  S
C842        C843   1.405       .  A
C843        C844   1.400       .  A
C843        F850   1.356       .  S
C844        C845   1.404       .  A
C844        F849   1.358       .  S
C845        C846   1.404       .  A
C846        F847   1.358       .  S
C851        C852   1.409       .  A
C851        C856   1.394       .  A
C851        F858   1.357       .  S
C852        C853   1.409   1_655  A
C853        C854   1.402       .  A
C853        F860   1.354       .  S
C854        C855   1.406       .  A
C854        F859   1.357       .  S
C855        C856   1.405   1_455  A
C856        F857   1.358       .  S
C861        C862   1.409       .  A
C861        C866   1.399       .  A
C861        F868   1.358       .  S
C862        C863   1.411       .  A
C863        C864   1.401       .  A
C863        F870   1.358       .  S
C864        C865   1.405       .  A
C864        F869   1.356       .  S
C865        C866   1.405       .  A
C866        F867   1.358       .  S
C871        C872   1.409       .  A
C871        C876   1.395       .  A
C871        F878   1.358       .  S
C872        C873   1.411       .  A
C873        C874   1.403       .  A
C873        F880   1.357       .  S
C874        C875   1.404       .  A
C874        F879   1.357       .  S
C875        C876   1.403       .  A
C876        F877   1.357       .  S
C881        C882   1.403       .  A
C881        C886   1.398       .  A
C881        F888   1.357   1_655  S
C882        C883   1.406       .  A
C883        C884   1.398       .  A
C883        F890   1.357       .  S
C884        C885   1.403       .  A
C884        F889   1.358       .  S
C885        C886   1.407       .  A
C886        F887   1.358   1_655  S
C891        C892   1.405       .  A
C891        C896   1.404       .  A
C891        F898   1.357       .  S
C892        C893   1.403       .  A
C893        C894   1.394       .  A
C893        F900   1.357       .  S
C894        C895   1.408       .  A
C894        F899   1.358       .  S
C895        C896   1.411       .  A
C896        F897   1.357       .  S
C901        C902   1.404       .  A
C901        C906   1.401       .  A
C901        F908   1.357       .  S
C902        C903   1.403       .  A
C903        C904   1.397       .  A
C903        F910   1.358       .  S
C904        C905   1.409       .  A
C904        F909   1.358       .  S
C905        C906   1.412       .  A
C906        F907   1.358       .  S
C911        C912   1.401       .  A
C911        C916   1.391       .  A
C911        F918   1.358       .  S
C912        C913   1.405       .  A
C913        C914   1.403       .  A
C913        F920   1.357       .  S
C914        C915   1.409       .  A
C914        F919   1.357       .  S
C915        C916   1.409       .  A
C916        F917   1.358       .  S
C921        C922   1.410       .  A
C921        C926   1.403       .  A
C921        F928   1.357       .  S
C922        C923   1.409       .  A
C923        C924   1.396       .  A
C923        F930   1.358       .  S
C924        C925   1.403       .  A
C924        F929   1.357       .  S
C925        C926   1.405       .  A
C926        F927   1.357       .  S
C931        C932   1.404       .  A
C931        C936   1.403       .  A
C931        F938   1.357       .  S
C932        C933   1.404       .  A
C933        C934   1.397       .  A
C933        F940   1.357       .  S
C934        C935   1.409       .  A
C934        F939   1.358       .  S
C935        C936   1.411       .  A
C936        F937   1.357       .  S
C941        C942   1.405       .  A
C941        C946   1.402       .  A
C941        F948   1.357       .  S
C942        C943   1.401       .  A
C943        C944   1.392       .  A
C943        F950   1.357       .  S
C944        C945   1.408       .  A
C944        F949   1.358       .  S
C945        C946   1.408       .  A
C946        F947   1.357       .  S
C951        C952   1.402       .  A
C951        C956   1.396       .  A
C951        F958   1.358       .  S
C952        C953   1.405       .  A
C953        C954   1.398       .  A
C953        F960   1.357       .  S
C954        C955   1.410       .  A
C954        F959   1.358       .  S
C955        C956   1.408       .  A
C956        F957   1.358       .  S
C961        C962   1.409       .  A
C961        C966   1.402       .  A
C961        F968   1.357       .  S
C962        C963   1.410       .  A
C963        C964   1.394       .  A
C963        F970   1.358       .  S
C964        C965   1.402       .  A
C964        F969   1.357       .  S
C965        C966   1.405       .  A
C966        F967   1.357       .  S
C971        C972   1.409       .  A
C971        C976   1.398       .  A
C971        F978   1.358       .  S
C972        C973   1.406       .  A
C973        C974   1.395       .  A
C973        F980   1.358       .  S
C974        C975   1.403       .  A
C974        F979   1.357       .  S
C975        C976   1.403       .  A
C976        F977   1.357       .  S
C981        C982   1.404       .  A
C981        C986   1.395       .  A
C981        F988   1.358       .  S
C982        C983   1.409       .  A
C983        C984   1.402       .  A
C983        F990   1.358       .  S
C984        C985   1.406       .  A
C984        F989   1.357       .  S
C985        C986   1.406       .  A
C986        F987   1.357       .  S
