geometry optimzed in LAMMPS
_audit_creation_date              2020-11-30 
_audit_creation_method            'lammps2cif' 
_symmetry_space_group_name_H-M    'P1' 
_symmetry_Int_Tables_number       1 
_symmetry_cell_setting            triclinic 
loop_ 
_symmetry_equiv_pos_as_xyz 
  x,y,z 
_cell_length_a                    33.03324197 
_cell_length_b                    32.90742731348216 
_cell_length_c                    32.45176534871492 
_cell_angle_alpha                 90.0028939236085 
_cell_angle_beta                  90.00369065385199 
_cell_angle_gamma                 89.99835989979165 
loop_ 
_atom_site_label 
_atom_site_type_symbol 
_atom_site_fract_x 
_atom_site_fract_y 
_atom_site_fract_z 
_atom_site_charge 
C1          C  0.33037501  0.34555354  0.16678407     0.01900
C2          C  0.33024998  0.26440269  0.24624822     0.01900
C3          C  0.25081949  0.26581859  0.16521733     0.01900
C4          C  0.25080562  0.34425475  0.24766522     0.01900
C5          C  0.33039358  0.26469738  0.66670366     0.01900
C6          C  0.25080250  0.26610476  0.74756563     0.01900
C7          C  0.25088282  0.34447927  0.66506696     0.01900
C8          C  0.33029457  0.34590935  0.74611540     0.01900
N9          N  0.49199898  0.50905645  0.87903324    -0.01800
N10         N  0.48330538  0.48216103  0.85014544    -0.53900
N11         N  0.46383389  0.60184136  0.90782075    -0.01400
N12         N  0.43539333  0.62869061  0.89909605    -0.56000
N13         N  0.49196863  0.60188990  0.87907963    -0.01000
N14         N  0.48321443  0.62877646  0.85020400    -0.53900
N15         N  0.46387062  0.50903474  0.90777809    -0.00700
N16         N  0.43548184  0.48213074  0.89903640    -0.56400
C17         C  0.44833483  0.46537666  0.86338066     1.00400
C18         C  0.44820936  0.64548760  0.86345243     1.00200
N19         N  0.49195566  0.60186916  0.03424511    -0.01900
N20         N  0.48323630  0.62879418  0.06309651    -0.54500
N21         N  0.46386934  0.50900945  0.00549558    -0.00100
N22         N  0.43552337  0.48204322  0.01417977    -0.55700
N23         N  0.49199076  0.50902842  0.03424829    -0.02000
N24         N  0.48334234  0.48206993  0.06308465    -0.54700
N25         N  0.46383016  0.60183206  0.00549459     0.00300
N26         N  0.43542432  0.62872992  0.01418625    -0.55800
Mn27       Mn  0.46295525  0.55542419  0.95664930     1.18400
C28         C  0.44825678  0.64553822  0.04982145     1.02500
C29         C  0.44840105  0.46525309  0.04980974     1.03200
N30         N  0.58806771  0.60189874  0.87909025    -0.02000
N31         N  0.59682997  0.62878719  0.85021808    -0.58300
N32         N  0.61616637  0.50903222  0.90779813    -0.00800
N33         N  0.64456329  0.48213205  0.89906088    -0.59000
N34         N  0.58804644  0.50905575  0.87904258    -0.01500
N35         N  0.59675270  0.48216524  0.85015133    -0.58600
N36         N  0.61619192  0.60185202  0.90784593    -0.00400
N37         N  0.64463174  0.62870516  0.89913463    -0.59300
Mn38       Mn  0.54001970  0.55548360  0.87811453     1.10700
C39         C  0.63182974  0.64550304  0.86348259     1.03700
C40         C  0.63172392  0.46538152  0.86339476     1.03800
N41         N  0.58799288  0.50902626  0.03426921    -0.01500
N42         N  0.59662868  0.48205722  0.06310291    -0.56900
N43         N  0.61615214  0.60184131  0.00552511    -0.00800
N44         N  0.64454320  0.62875406  0.01421765    -0.53600
N45         N  0.58802046  0.60187726  0.03426657    -0.02100
N46         N  0.59672367  0.62881615  0.06311251    -0.56400
N47         N  0.61612331  0.50900614  0.00552750    -0.01100
N48         N  0.64445941  0.48203015  0.01421750    -0.53600
Mn49       Mn  0.53999050  0.55545969  0.03521021     1.20200
Mn50       Mn  0.61705432  0.55542705  0.95667869     1.10100
Cl51       Cl  0.54000503  0.55545195  0.95666123    -0.81600
C52         C  0.63157068  0.46523339  0.04983984     1.00700
C53         C  0.63170006  0.64557018  0.04984422     1.00500
C54         C  0.32960999  0.76480927  0.16659426     0.01900
C55         C  0.25012101  0.84460711  0.16518090     0.01900
C56         C  0.25002856  0.76602439  0.24746316     0.01900
C57         C  0.32953024  0.84581245  0.24622686     0.01900
N58         N  0.49200279  0.10114829  0.53417448    -0.01800
N59         N  0.48333640  0.12809241  0.56302280    -0.53900
N60         N  0.46385415  0.00834566  0.50540437    -0.01400
N61         N  0.43543689  0.98146542  0.51411108    -0.56000
N62         N  0.49198356  0.00831064  0.53414978    -0.01000
N63         N  0.48325566  0.98140284  0.56301405    -0.53900
N64         N  0.46387491  0.10116067  0.50542490    -0.00700
N65         N  0.43551400  0.12810630  0.51412236    -0.56400
C66         C  0.44838174  0.14489355  0.54975882     1.00400
C67         C  0.44826826  0.96466838  0.54975063     1.00200
N68         N  0.49197465  0.00831434  0.37897903    -0.01900
N69         N  0.48323183  0.98142693  0.35009740    -0.54500
N70         N  0.46386751  0.10116028  0.40771393    -0.00100
N71         N  0.43548907  0.12808404  0.39900064    -0.55700
N72         N  0.49199242  0.10114929  0.37896625    -0.02000
N73         N  0.48330782  0.12807102  0.35010367    -0.54700
N74         N  0.46384714  0.00834700  0.40772428     0.00300
N75         N  0.43541776  0.98148596  0.39899755    -0.55800
Mn76       Mn  0.46296512  0.05475622  0.45656767     1.18400
C77         C  0.44823888  0.96469977  0.36334841     1.02500
C78         C  0.44834527  0.14485997  0.36335826     1.03200
N79         N  0.58806323  0.00830649  0.53415651    -0.02000
N80         N  0.59679313  0.98139191  0.56301494    -0.58300
N81         N  0.61615855  0.10116622  0.50542759    -0.00800
N82         N  0.64451728  0.12811682  0.51412460    -0.59000
N83         N  0.58803696  0.10115288  0.53417961    -0.01500
N84         N  0.59670467  0.12809864  0.56302759    -0.58600
N85         N  0.61618867  0.00834045  0.50540757    -0.00400
N86         N  0.64460209  0.98145259  0.51410999    -0.59300
Mn87       Mn  0.54002153  0.05472202  0.53511634     1.10700
C88         C  0.63177824  0.96465062  0.54974972     1.03700
C89         C  0.63165598  0.14490396  0.54976269     1.03800
N90         N  0.58802202  0.10115494  0.37895825    -0.01500
N91         N  0.59669664  0.12808232  0.35009837    -0.56900
N92         N  0.61617538  0.00833721  0.40771955    -0.00800
N93         N  0.64459273  0.98145799  0.39900292    -0.53600
N94         N  0.58804435  0.00830563  0.37897461    -0.02100
N95         N  0.59677308  0.98140047  0.35010314    -0.56400
N96         N  0.61615075  0.10116755  0.40770679    -0.01100
N97         N  0.64452048  0.12809924  0.39899471    -0.53600
Mn98       Mn  0.54000887  0.05472418  0.37802117     1.20200
Mn99       Mn  0.61706462  0.05475644  0.45656537     1.10100
Cl100      Cl  0.54001518  0.05473630  0.45656793    -0.81600
C101        C  0.63165834  0.14487865  0.36335250     1.00700
C102        C  0.63176270  0.96466130  0.36335911     1.00500
C103        C  0.74980473  0.34592929  0.74610293     0.01900
C104        C  0.82923113  0.34453175  0.66506204     0.01900
C105        C  0.74971580  0.26474624  0.66664768     0.01900
C106        C  0.82930368  0.26610800  0.74753836     0.01900
C107        C  0.32959937  0.76448397  0.74632422     0.01900
C108        C  0.32970583  0.84549822  0.66671001     0.01900
C109        C  0.25018733  0.76572849  0.66527528     0.01900
C110        C  0.25012284  0.84430267  0.74757563     0.01900
C111        C  0.75053617  0.84579756  0.24623382     0.01900
C112        C  0.83006248  0.76600920  0.24740657     0.01900
C113        C  0.75046755  0.76485127  0.16652691     0.01900
C114        C  0.82994422  0.84467069  0.16517762     0.01900
C115        C  0.75051567  0.76448774  0.74638456     0.01900
C116        C  0.82991875  0.76563812  0.66531988     0.01900
C117        C  0.75038850  0.84541473  0.66666308     0.01900
C118        C  0.82999251  0.84432018  0.74753564     0.01900
N119        N  0.08656514  0.10387544  0.03385488    -0.01800
N120        N  0.11408441  0.11232849  0.06216307    -0.53900
N121        N  0.99376238  0.13202992  0.00500162    -0.01400
N122        N  0.96636705  0.16016755  0.01306473    -0.56000
N123        N  0.99367370  0.10390685  0.03385572    -0.01000
N124        N  0.96617451  0.11238740  0.06217646    -0.53900
N125        N  0.08648551  0.13199831  0.00500070    -0.00700
N126        N  0.11390954  0.16010796  0.01304979    -0.56400
C127        C  0.13109647  0.14715297  0.04843700     1.00400
C128        C  0.94918636  0.14722957  0.04846067     1.00200
N129        N  0.99369795  0.10392222  0.87861437    -0.01900
N130        N  0.96622817  0.11244301  0.85027292    -0.54500
N131        N  0.08649009  0.13200561  0.90752459    -0.00100
N132        N  0.11388406  0.16014240  0.89948777    -0.55700
N133        N  0.08658464  0.10389123  0.87865544    -0.02000
N134        N  0.11408871  0.11238691  0.85034702    -0.54700
N135        N  0.99378593  0.13203575  0.90748488     0.00300
N136        N  0.96642095  0.16019821  0.89941380    -0.55800
Mn137      Mn  0.04012733  0.13291220  0.95625351     1.18400
C138        C  0.94925672  0.14729444  0.86399594     1.02500
C139        C  0.13107376  0.14722181  0.86409192     1.03200
N140        N  0.99366824  0.00728555  0.03386195    -0.02000
N141        N  0.96623350  0.99875264  0.06222994    -0.58300
N142        N  0.08645188  0.97916882  0.00499401    -0.00800
N143        N  0.11380750  0.95100394  0.01307202    -0.59000
N144        N  0.08654235  0.00728468  0.03385896    -0.01500
N145        N  0.11400333  0.99876582  0.06220600    -0.58600
N146        N  0.99374974  0.97917055  0.00499660    -0.00400
N147        N  0.96641460  0.95098958  0.01309748    -0.59300
Mn148      Mn  0.04010978  0.05559187  0.03494896     1.10700
C149        C  0.94927198  0.96389165  0.04852559     1.03700
C150        C  0.13097121  0.96391430  0.04848672     1.03800
N151        N  0.08656225  0.00725485  0.87864292    -0.01500
N152        N  0.11400308  0.99868690  0.85029168    -0.56900
N153        N  0.99377332  0.97915485  0.90747913    -0.00800
N154        N  0.96647308  0.95094578  0.89936443    -0.53600
N155        N  0.99369366  0.00725757  0.87860047    -0.02100
N156        N  0.96629201  0.99867840  0.85020730    -0.56400
N157        N  0.08645661  0.97915128  0.90752077    -0.01100
N158        N  0.11377838  0.95095424  0.89944878    -0.53600
Mn159      Mn  0.04013256  0.05558578  0.87753291     1.20200
Mn160      Mn  0.04010330  0.97827931  0.95624878     1.10100
Cl161      Cl  0.04011138  0.05559245  0.95624350    -0.81600
C162        C  0.13094203  0.96382406  0.86402441     1.00700
C163        C  0.94934947  0.96380822  0.86391321     1.00500
C164        C  0.74983384  0.26438010  0.24625284     0.01900
C165        C  0.82924028  0.26577768  0.16519194     0.01900
C166        C  0.74968700  0.34553068  0.16677652     0.01900
C167        C  0.82929193  0.34423472  0.24764695     0.01900
N168        N  0.08643491  0.63125069  0.40753564    -0.01800
N169        N  0.11376052  0.65943936  0.39944408    -0.53900
N170        N  0.99365353  0.60314342  0.37867083    -0.01400
N171        N  0.96624888  0.61171844  0.35028051    -0.56000
N172        N  0.99374378  0.63125204  0.40754479    -0.01000
N173        N  0.96644573  0.65946585  0.39942660    -0.53900
N174        N  0.08652029  0.60314352  0.37866166    -0.00700
N175        N  0.11394871  0.61169441  0.35029376    -0.56400
C176        C  0.13090197  0.64655422  0.36401159     1.00400
C177        C  0.94931322  0.64659451  0.36398031     1.00200
N178        N  0.99376179  0.47837735  0.40752790    -0.01900
N179        N  0.96638727  0.45022263  0.39946661    -0.54500
N180        N  0.08655192  0.50653103  0.37866101    -0.00100
N181        N  0.11406950  0.49806591  0.35035333    -0.55700
N182        N  0.08647595  0.47841427  0.40751934    -0.02000
N183        N  0.11389694  0.45029942  0.39948045    -0.54700
N184        N  0.99365815  0.50649673  0.37866772     0.00300
N185        N  0.96616668  0.49798974  0.35034272    -0.55800
Mn186      Mn  0.04009239  0.55482416  0.37757229     1.18400
C187        C  0.94919945  0.46313907  0.36406498     1.02500
C188        C  0.13107969  0.46324247  0.36409203     1.03200
N189        N  0.99378195  0.63123321  0.50507271    -0.02000
N190        N  0.96645106  0.65941633  0.51319177    -0.58300
N191        N  0.08658821  0.60312266  0.53387979    -0.00800
N192        N  0.11405304  0.61165537  0.56222200    -0.59000
N193        N  0.08647768  0.63123797  0.50501870    -0.01500
N194        N  0.11382260  0.65941676  0.51309261    -0.58600
N195        N  0.99371752  0.60311865  0.53393603    -0.00400
N196        N  0.96629929  0.61165503  0.56232177    -0.59300
Mn197      Mn  0.04010499  0.63212719  0.45629407     1.10700
C198        C  0.94933030  0.64651713  0.54862937     1.03700
C199        C  0.13100077  0.64651394  0.54850106     1.03800
N200        N  0.08651538  0.47839437  0.50498326    -0.01500
N201        N  0.11393343  0.45027331  0.51300179    -0.56900
N202        N  0.99372573  0.50647831  0.53390786    -0.00800
N203        N  0.96624104  0.49798051  0.56223572    -0.53600
N204        N  0.99380337  0.47836661  0.50503662    -0.02100
N205        N  0.96641583  0.45022507  0.51309357    -0.56400
N206        N  0.08661638  0.50650848  0.53385224    -0.01100
N207        N  0.11414682  0.49803054  0.56214091    -0.53600
Mn208      Mn  0.04013496  0.47749425  0.45626634     1.20200
Mn209      Mn  0.04016068  0.55480322  0.53498834     1.10100
Cl210      Cl  0.04011597  0.55481311  0.45628010    -0.81600
C211        C  0.13114243  0.46320507  0.54838609     1.00700
C212        C  0.94925040  0.46314236  0.54850490     1.00500
C213        C  0.92086240  0.43929372  0.34064501    -0.14100
C214        C  0.89901429  0.41780432  0.32029249     0.09900
C215        C  0.87482792  0.39190328  0.29571171     0.11800
C216        C  0.85451493  0.36996623  0.27419835    -0.15000
C217        C  0.77640000  0.36897736  0.19442214    -0.08900
C218        C  0.80238254  0.36838856  0.22082364    -0.10500
C219        C  0.80248484  0.29312602  0.14155571    -0.08900
C220        C  0.77650472  0.31916466  0.14209860    -0.10500
C221        C  0.85314332  0.31784406  0.21985727    -0.08900
C222        C  0.85312417  0.29219848  0.19292518    -0.10500
C223        C  0.72612174  0.29171065  0.21952410    -0.08900
C224        C  0.72606854  0.31817454  0.19355833    -0.10500
C225        C  0.77668163  0.29077901  0.27086749    -0.08900
C226        C  0.80263077  0.31685099  0.27135053    -0.10500
C227        C  0.77651011  0.24096115  0.21854330    -0.08900
C228        C  0.80242921  0.24158239  0.19207857    -0.10500
C229        C  0.92082372  0.17103520  0.07188727    -0.14100
C230        C  0.89895444  0.19245013  0.09229354     0.09900
C231        C  0.87475089  0.21824499  0.11696854     0.11800
C232        C  0.85443830  0.24010099  0.13856451    -0.15000
C233        C  0.92116311  0.93985969  0.84042017    -0.14100
C234        C  0.89945402  0.91824665  0.82005138     0.09900
C235        C  0.87541711  0.89219245  0.79549067     0.11800
C236        C  0.85518979  0.87014175  0.77401633    -0.15000
C237        C  0.77710995  0.86893115  0.69423550    -0.08900
C238        C  0.80309098  0.86839892  0.72063774    -0.10500
C239        C  0.77719744  0.81897545  0.64205570    -0.08900
C240        C  0.80317146  0.79292843  0.64160322    -0.10500
C241        C  0.85385114  0.81784866  0.71982898    -0.08900
C242        C  0.85382400  0.79212692  0.69297018    -0.10500
C243        C  0.85507979  0.73985967  0.63876237    -0.14100
C244        C  0.87530544  0.71788647  0.61720626     0.09900
C245        C  0.89936536  0.69194192  0.59255204     0.11800
C246        C  0.92110493  0.67041139  0.57212940    -0.15000
C247        C  0.72682234  0.79175117  0.71957258    -0.08900
C248        C  0.72677528  0.81813806  0.69352891    -0.10500
C249        C  0.77718607  0.74098235  0.71874799    -0.08900
C250        C  0.80310337  0.74153162  0.69228165    -0.10500
C251        C  0.80332635  0.81700990  0.77132093    -0.08900
C252        C  0.77736941  0.79094449  0.77092742    -0.10500
C253        C  0.85508879  0.87046706  0.13862509    -0.14100
C254        C  0.87529287  0.89246693  0.11707944     0.09900
C255        C  0.89932622  0.91844303  0.09243624     0.11800
C256        C  0.92105037  0.93999071  0.07201883    -0.15000
C257        C  0.77726048  0.79129484  0.14190808    -0.08900
C258        C  0.80321827  0.81735817  0.14145803    -0.10500
C259        C  0.80317936  0.74190820  0.22050846    -0.08900
C260        C  0.77720148  0.74135462  0.19410320    -0.10500
C261        C  0.85390992  0.79248638  0.21969774    -0.08900
C262        C  0.85386529  0.81820203  0.19283436    -0.10500
C263        C  0.85526327  0.74020897  0.27390633    -0.14100
C264        C  0.87547114  0.71817786  0.29542019     0.09900
C265        C  0.89947180  0.69214695  0.32004383     0.11800
C266        C  0.92115018  0.67054865  0.34046217    -0.15000
C267        C  0.72686803  0.81851552  0.21942382    -0.08900
C268        C  0.72684473  0.79212399  0.19338600    -0.10500
C269        C  0.77719133  0.86931562  0.21859812    -0.08900
C270        C  0.80311007  0.86876677  0.19213342    -0.10500
C271        C  0.77740455  0.81936391  0.27078307    -0.08900
C272        C  0.80337653  0.79331282  0.27118052    -0.10500
C273        C  0.15912741  0.93986740  0.84055636    -0.14100
C274        C  0.18080399  0.91823152  0.82018614     0.09900
C275        C  0.20477595  0.89215345  0.79560172     0.11800
C276        C  0.22495288  0.87009748  0.77409349    -0.15000
C277        C  0.22627277  0.79217755  0.69295413    -0.08900
C278        C  0.22625021  0.81786838  0.71984333    -0.10500
C279        C  0.15921428  0.67043136  0.57198079    -0.14100
C280        C  0.18090693  0.69199807  0.59240929     0.09900
C281        C  0.20488597  0.71798240  0.61709184     0.11800
C282        C  0.22505255  0.73997114  0.63868254    -0.15000
C283        C  0.27692311  0.79304750  0.64159191    -0.08900
C284        C  0.30289475  0.81909141  0.64207433    -0.10500
C285        C  0.30299245  0.86898528  0.69430878    -0.08900
C286        C  0.27701580  0.86841404  0.72070837    -0.10500
C287        C  0.27700818  0.74159293  0.69220389    -0.08900
C288        C  0.30293039  0.74100817  0.71866455    -0.10500
C289        C  0.30274950  0.79090622  0.77090004    -0.08900
C290        C  0.27679066  0.81696670  0.77132588    -0.10500
C291        C  0.35329078  0.79177633  0.71954830    -0.08900
C292        C  0.35333015  0.81819355  0.69353803    -0.10500
C293        C  0.92092595  0.17114360  0.84057390    -0.14100
C294        C  0.89907114  0.19262401  0.82022088     0.09900
C295        C  0.87486604  0.21849812  0.79563223     0.11800
C296        C  0.85453656  0.24040576  0.77410628    -0.15000
C297        C  0.77643654  0.24132592  0.69430859    -0.08900
C298        C  0.80241334  0.24193115  0.72071568    -0.10500
C299        C  0.80249533  0.31716449  0.64142287    -0.08900
C300        C  0.77652669  0.29111510  0.64196740    -0.10500
C301        C  0.85311909  0.31813153  0.69280833    -0.08900
C302        C  0.85314772  0.29249731  0.71974745    -0.10500
C303        C  0.85443247  0.37020999  0.63844640    -0.14100
C304        C  0.87476476  0.39207672  0.61688527     0.09900
C305        C  0.89899602  0.41789267  0.59226898     0.11800
C306        C  0.92088307  0.43932862  0.57190878    -0.15000
C307        C  0.72610493  0.31858048  0.71937548    -0.08900
C308        C  0.72607449  0.29210512  0.69341593    -0.10500
C309        C  0.80262288  0.29348842  0.77122449    -0.08900
C310        C  0.77666117  0.31954755  0.77072367    -0.10500
C311        C  0.77647557  0.36934802  0.71839169    -0.08900
C312        C  0.80240133  0.36872579  0.69193404    -0.10500
C313        C  0.72400867  0.23853506  0.27189449    -0.14100
C314        C  0.70229361  0.21785327  0.29316405     0.09900
C315        C  0.67684136  0.19373490  0.31811519     0.11800
C316        C  0.65560896  0.17236430  0.33915803    -0.15000
C317        C  0.65579733  0.93721416  0.57392922    -0.14100
C318        C  0.67711868  0.91588409  0.59492132     0.09900
C319        C  0.70267713  0.89181033  0.61980205     0.11800
C320        C  0.72447410  0.87117391  0.64102982    -0.15000
C321        C  0.65581160  0.93728616  0.33913797    -0.14100
C322        C  0.67718258  0.91604364  0.31810811     0.09900
C323        C  0.70281270  0.89208980  0.29318461     0.11800
C324        C  0.72464868  0.87153272  0.27191993    -0.15000
C325        C  0.42424695  0.93725813  0.57394296    -0.14100
C326        C  0.40293112  0.91595533  0.59495702     0.09900
C327        C  0.37738699  0.89190825  0.61986277     0.11800
C328        C  0.35560422  0.87127690  0.64109880    -0.15000
C329        C  0.65557237  0.17245706  0.57391756    -0.14100
C330        C  0.67675998  0.19391124  0.59492358     0.09900
C331        C  0.70215500  0.21813612  0.61983333     0.11800
C332        C  0.72384664  0.23888450  0.64106499    -0.15000
C333        C  0.35540010  0.87157419  0.27189043    -0.14100
C334        C  0.37721401  0.89215198  0.29315103     0.09900
C335        C  0.40282061  0.91611320  0.31808003     0.11800
C336        C  0.42418389  0.93734756  0.33911977    -0.15000
C337        C  0.27670475  0.79334909  0.27121884    -0.08900
C338        C  0.30267179  0.81940016  0.27079996    -0.10500
C339        C  0.22485490  0.74023278  0.27397760    -0.14100
C340        C  0.20468586  0.71818140  0.29549547     0.09900
C341        C  0.18073152  0.69211606  0.32010888     0.11800
C342        C  0.15907208  0.67049720  0.34051262    -0.15000
C343        C  0.22619708  0.81816353  0.19285308    -0.08900
C344        C  0.22616289  0.79246986  0.21973692    -0.10500
C345        C  0.27695015  0.86872707  0.19211454    -0.08900
C346        C  0.30287126  0.86930461  0.21857522    -0.10500
C347        C  0.22499488  0.87038846  0.13860750    -0.14100
C348        C  0.20483763  0.89241026  0.11704456     0.09900
C349        C  0.18087076  0.91842815  0.09239125     0.11800
C350        C  0.15918357  0.94000726  0.07197188    -0.15000
C351        C  0.35323692  0.79210356  0.19342747    -0.08900
C352        C  0.35320727  0.81851510  0.21944367    -0.10500
C353        C  0.27691358  0.74190786  0.22058901    -0.08900
C354        C  0.30288853  0.74133041  0.19418785    -0.10500
C355        C  0.30280886  0.79122608  0.14195669    -0.08900
C356        C  0.27684553  0.81728139  0.14148434    -0.10500
C357        C  0.65546769  0.43767378  0.07400054    -0.14100
C358        C  0.67665357  0.41624014  0.09502482     0.09900
C359        C  0.70207044  0.39206301  0.11995352     0.11800
C360        C  0.72379104  0.37135782  0.14119302    -0.15000
C361        C  0.65589986  0.67287187  0.83927704    -0.14100
C362        C  0.67726675  0.69413403  0.81826260     0.09900
C363        C  0.70286285  0.71813323  0.79334787     0.11800
C364        C  0.72465985  0.73872887  0.77208031    -0.15000
C365        C  0.72454229  0.73907881  0.14092153    -0.14100
C366        C  0.70269018  0.71844280  0.11975392     0.09900
C367        C  0.67705818  0.69437090  0.09495274     0.11800
C368        C  0.65570280  0.67303182  0.07400803    -0.15000
C369        C  0.42414992  0.67284668  0.83923481    -0.14100
C370        C  0.40279996  0.69410189  0.81819968     0.09900
C371        C  0.37722893  0.71809743  0.79326410     0.11800
C372        C  0.35544828  0.73870191  0.77199233    -0.15000
C373        C  0.72398419  0.37177744  0.77175397    -0.14100
C374        C  0.70230972  0.39246350  0.79306775     0.09900
C375        C  0.67690993  0.41657939  0.81808458     0.11800
C376        C  0.65569745  0.43793262  0.83917142    -0.15000
C377        C  0.42424762  0.67298091  0.07398944    -0.14100
C378        C  0.40291684  0.69430996  0.09496342     0.09900
C379        C  0.37733372  0.71837897  0.11980785     0.11800
C380        C  0.35551797  0.73902238  0.14099929    -0.15000
C381        C  0.42437351  0.43792827  0.83915759    -0.14100
C382        C  0.40316469  0.41657543  0.81807352     0.09900
C383        C  0.37777120  0.39245805  0.79306368     0.11800
C384        C  0.35610434  0.37176523  0.77175603    -0.15000
C385        C  0.27770598  0.36868206  0.69193319    -0.08900
C386        C  0.30362932  0.36931859  0.71839256    -0.10500
C387        C  0.15949601  0.43937873  0.57178259    -0.14100
C388        C  0.18132762  0.41790919  0.59216375     0.09900
C389        C  0.20546055  0.39204906  0.61682276     0.11800
C390        C  0.22571915  0.37015583  0.63842345    -0.17400
C391        C  0.27747610  0.29349281  0.77124545    -0.08900
C392        C  0.30343821  0.31954632  0.77074429    -0.10500
C393        C  0.22694758  0.29247683  0.71976305    -0.08900
C394        C  0.22697691  0.31809950  0.69281271    -0.10500
C395        C  0.22559703  0.24040915  0.77414627    -0.14100
C396        C  0.20532667  0.21848260  0.79569837     0.09900
C397        C  0.18120293  0.19257609  0.82031440     0.11800
C398        C  0.15939332  0.17107182  0.84067977    -0.15000
C399        C  0.35400007  0.31854913  0.71940939    -0.08900
C400        C  0.35403618  0.29206285  0.69346276    -0.10500
C401        C  0.30358614  0.29105406  0.64200894    -0.08900
C402        C  0.27761765  0.31710092  0.64144979    -0.10500
C403        C  0.30367344  0.24128868  0.69436503    -0.08900
C404        C  0.27769353  0.24191518  0.72076220    -0.10500
C405        C  0.35625204  0.23883031  0.64112998    -0.14100
C406        C  0.37792422  0.21808599  0.61988201     0.09900
C407        C  0.40329359  0.19387589  0.59494339     0.11800
C408        C  0.42446760  0.17243459  0.57391729    -0.15000
C409        C  0.22562050  0.36999602  0.27422341    -0.14100
C410        C  0.20536277  0.39196565  0.29574480     0.09900
C411        C  0.18124249  0.41790909  0.32032799     0.11800
C412        C  0.15942359  0.43941826  0.34067857    -0.15000
C413        C  0.22693399  0.29223280  0.19295246    -0.08900
C414        C  0.22692906  0.31787548  0.21988645    -0.10500
C415        C  0.22564066  0.24013673  0.13859106    -0.14100
C416        C  0.20538303  0.21824683  0.11698365     0.09900
C417        C  0.18126095  0.19240365  0.09229269     0.11800
C418        C  0.15944049  0.17095753  0.07187215    -0.15000
C419        C  0.27746802  0.31686883  0.27136244    -0.08900
C420        C  0.30341591  0.29079807  0.27087347    -0.10500
C421        C  0.27763588  0.24162060  0.19209370    -0.08900
C422        C  0.30356425  0.24099002  0.21854791    -0.10500
C423        C  0.35606530  0.23854864  0.27188120    -0.14100
C424        C  0.37775637  0.21785069  0.29315625     0.09900
C425        C  0.40317741  0.19371773  0.31811796     0.11800
C426        C  0.42439468  0.17234175  0.33916721    -0.15000
C427        C  0.35395981  0.29172927  0.21951882    -0.08900
C428        C  0.35400606  0.31819436  0.19355496    -0.10500
C429        C  0.27770408  0.36840539  0.22083953    -0.08900
C430        C  0.30367652  0.36900014  0.19443536    -0.10500
C431        C  0.27756401  0.29316511  0.14157739    -0.08900
C432        C  0.30354689  0.31919673  0.14211144    -0.10500
C433        C  0.42449855  0.43770598  0.07396594    -0.14100
C434        C  0.40332557  0.41627599  0.09499861     0.09900
C435        C  0.37794068  0.39209563  0.11994265     0.11800
C436        C  0.35624847  0.37138252  0.14119509    -0.15000
loop_ 
_geom_bond_atom_site_label_1 
_geom_bond_atom_site_label_2 
_geom_bond_distance 
_geom_bond_site_symmetry_2 
_ccdc_geom_bond_type 
C1          C428   1.475       .  S
C1          C430   1.476       .  S
C1          C432   1.476       .  S
C1          C436   1.464       .  S
C2          C420   1.476       .  S
C2          C422   1.476       .  S
C2          C423   1.464       .  S
C2          C427   1.475       .  S
C3          C413   1.479       .  S
C3          C415   1.467       .  S
C3          C421   1.476       .  S
C3          C431   1.476       .  S
C4          C409   1.467       .  S
C4          C414   1.479       .  S
C4          C419   1.476       .  S
C4          C429   1.476       .  S
C5          C400   1.475       .  S
C5          C401   1.476       .  S
C5          C403   1.476       .  S
C5          C405   1.464       .  S
C6          C391   1.476       .  S
C6          C393   1.479       .  S
C6          C395   1.467       .  S
C6          C404   1.476       .  S
C7          C385   1.476       .  S
C7          C390   1.467       .  S
C7          C394   1.479       .  S
C7          C402   1.476       .  S
C8          C384   1.464       .  S
C8          C386   1.476       .  S
C8          C392   1.476       .  S
C8          C399   1.475       .  S
N9           N10   1.321       .  A
N9           N15   1.317       .  A
N9          Mn38   2.203       .  S
N10          C17   1.351       .  A
N11          N13   1.317       .  A
N11          N12   1.320       .  A
N11         Mn27   2.201       .  S
N12          C18   1.350       .  A
N13          N14   1.321       .  A
N13         Mn38   2.203       .  S
N14          C18   1.351       .  A
N15          N16   1.320       .  A
N15         Mn27   2.201       .  S
N16          C17   1.350       .  A
C17         C381   1.435       .  S
C18         C369   1.435       .  S
N19          N25   1.317       .  A
N19          N20   1.321       .  A
N19         Mn49   2.202       .  S
N20          C28   1.351       .  A
N21          N22   1.321       .  A
N21          N23   1.317       .  A
N21         Mn27   2.202   1_554  S
N22          C29   1.350       .  A
N23          N24   1.321       .  A
N23         Mn49   2.202       .  S
N24          C29   1.351       .  A
N25          N26   1.320       .  A
N25         Mn27   2.201   1_554  S
N26          C28   1.350       .  A
Mn27        Cl51   2.545       .  S
C28         C377   1.435       .  S
C29         C433   1.435       .  S
N30          N31   1.321       .  A
N30          N36   1.317       .  A
N30         Mn38   2.203       .  S
N31          C39   1.351       .  A
N32          N34   1.317       .  A
N32          N33   1.321       .  A
N32         Mn50   2.202       .  S
N33          C40   1.350       .  A
N34          N35   1.321       .  A
N34         Mn38   2.203       .  S
N35          C40   1.351       .  A
N36          N37   1.320       .  A
N36         Mn50   2.201       .  S
N37          C39   1.350       .  A
Mn38        Cl51   2.549       .  S
C39         C361   1.435       .  S
C40         C376   1.436       .  S
N41          N42   1.321       .  A
N41          N47   1.317       .  A
N41         Mn49   2.202       .  S
N42          C52   1.351       .  A
N43          N44   1.320       .  A
N43          N45   1.317       .  A
N43         Mn50   2.201   1_554  S
N44          C53   1.350       .  A
N45          N46   1.321       .  A
N45         Mn49   2.203       .  S
N46          C53   1.351       .  A
N47          N48   1.320       .  A
N47         Mn50   2.202   1_554  S
N48          C52   1.350       .  A
Mn49        Cl51   2.549   1_554  S
Mn50        Cl51   2.545       .  S
C52         C357   1.435       .  S
C53         C368   1.435       .  S
C54         C351   1.474       .  S
C54         C354   1.476       .  S
C54         C355   1.476       .  S
C54         C380   1.464       .  S
C55         C343   1.479       .  S
C55         C345   1.476       .  S
C55         C347   1.467       .  S
C55         C356   1.476       .  S
C56         C337   1.476       .  S
C56         C339   1.467       .  S
C56         C344   1.479       .  S
C56         C353   1.476       .  S
C57         C333   1.464       .  S
C57         C338   1.476       .  S
C57         C346   1.476       .  S
C57         C352   1.474       .  S
N58          N59   1.321       .  A
N58          N64   1.317       .  A
N58         Mn87   2.202       .  S
N59          C66   1.351       .  A
N60          N62   1.317       .  A
N60          N61   1.320   1_545  A
N60         Mn76   2.201       .  S
N61          C67   1.350       .  A
N62          N63   1.321   1_545  A
N62         Mn87   2.203       .  S
N63          C67   1.351       .  A
N64          N65   1.320       .  A
N64         Mn76   2.201       .  S
N65          C66   1.350       .  A
C66         C408   1.435       .  S
C67         C325   1.435       .  S
N68          N74   1.317       .  A
N68          N69   1.321   1_545  A
N68         Mn98   2.203       .  S
N69          C77   1.351       .  A
N70          N71   1.320       .  A
N70          N72   1.317       .  A
N70         Mn76   2.201       .  S
N71          C78   1.350       .  A
N72          N73   1.321       .  A
N72         Mn98   2.202       .  S
N73          C78   1.351       .  A
N74          N75   1.320   1_545  A
N74         Mn76   2.201       .  S
N75          C77   1.350       .  A
Mn76       Cl100   2.545       .  S
C77         C336   1.435       .  S
C78         C426   1.435       .  S
N79          N80   1.321   1_545  A
N79          N85   1.317       .  A
N79         Mn87   2.203       .  S
N80          C88   1.351       .  A
N81          N83   1.317       .  A
N81          N82   1.321       .  A
N81         Mn99   2.202       .  S
N82          C89   1.350       .  A
N83          N84   1.321       .  A
N83         Mn87   2.203       .  S
N84          C89   1.351       .  A
N85          N86   1.320   1_545  A
N85         Mn99   2.201       .  S
N86          C88   1.350       .  A
Mn87       Cl100   2.549       .  S
C88         C317   1.435       .  S
C89         C329   1.435       .  S
N90          N91   1.321       .  A
N90          N96   1.317       .  A
N90         Mn98   2.203       .  S
N91         C101   1.351       .  A
N92          N93   1.320   1_545  A
N92          N94   1.317       .  A
N92         Mn99   2.202       .  S
N93         C102   1.350       .  A
N94          N95   1.321   1_545  A
N94         Mn98   2.203       .  S
N95         C102   1.351       .  A
N96          N97   1.321       .  A
N96         Mn99   2.202       .  S
N97         C101   1.350       .  A
Mn98       Cl100   2.549       .  S
Mn99       Cl100   2.545       .  S
C101        C316   1.436       .  S
C102        C321   1.435       .  S
C103        C307   1.475       .  S
C103        C310   1.476       .  S
C103        C311   1.476       .  S
C103        C373   1.464       .  S
C104        C299   1.476       .  S
C104        C301   1.479       .  S
C104        C303   1.467       .  S
C104        C312   1.476       .  S
C105        C297   1.476       .  S
C105        C300   1.476       .  S
C105        C308   1.475       .  S
C105        C332   1.464       .  S
C106        C296   1.467       .  S
C106        C298   1.476       .  S
C106        C302   1.479       .  S
C106        C309   1.476       .  S
C107        C288   1.476       .  S
C107        C289   1.476       .  S
C107        C291   1.475       .  S
C107        C372   1.464       .  S
C108        C284   1.476       .  S
C108        C285   1.476       .  S
C108        C292   1.475       .  S
C108        C328   1.464       .  S
C109        C277   1.479       .  S
C109        C282   1.467       .  S
C109        C283   1.476       .  S
C109        C287   1.476       .  S
C110        C276   1.467       .  S
C110        C278   1.479       .  S
C110        C286   1.476       .  S
C110        C290   1.476       .  S
C111        C267   1.474       .  S
C111        C269   1.476       .  S
C111        C271   1.476       .  S
C111        C324   1.464       .  S
C112        C259   1.476       .  S
C112        C261   1.479       .  S
C112        C263   1.467       .  S
C112        C272   1.476       .  S
C113        C257   1.476       .  S
C113        C260   1.476       .  S
C113        C268   1.474       .  S
C113        C365   1.464       .  S
C114        C253   1.467       .  S
C114        C258   1.476       .  S
C114        C262   1.479       .  S
C114        C270   1.476       .  S
C115        C247   1.475       .  S
C115        C249   1.476       .  S
C115        C252   1.476       .  S
C115        C364   1.464       .  S
C116        C240   1.476       .  S
C116        C242   1.479       .  S
C116        C243   1.467       .  S
C116        C250   1.476       .  S
C117        C237   1.476       .  S
C117        C239   1.476       .  S
C117        C248   1.475       .  S
C117        C320   1.464       .  S
C118        C236   1.467       .  S
C118        C238   1.476       .  S
C118        C241   1.479       .  S
C118        C251   1.476       .  S
N119        N120   1.322       .  A
N119        N125   1.317       .  A
N119       Mn148   2.209       .  S
N120        C127   1.352       .  A
N121        N123   1.317       .  A
N121        N122   1.321       .  A
N121       Mn137   2.202   1_654  S
N122        C128   1.350       .  A
N123        N124   1.322       .  A
N123       Mn148   2.210   1_655  S
N124        C128   1.352       .  A
N125        N126   1.321       .  A
N125       Mn137   2.202   1_554  S
N126        C127   1.350       .  A
C127        C418   1.438       .  S
C128        C229   1.439       .  S
N129        N135   1.317       .  A
N129        N130   1.322       .  A
N129       Mn159   2.210   1_655  S
N130        C138   1.352       .  A
N131        N132   1.321       .  A
N131        N133   1.317       .  A
N131       Mn137   2.202       .  S
N132        C139   1.350       .  A
N133        N134   1.322       .  A
N133       Mn159   2.210       .  S
N134        C139   1.352       .  A
N135        N136   1.321       .  A
N135       Mn137   2.202   1_655  S
N136        C138   1.350       .  A
Mn137      Cl161   2.544       .  S
C138        C293   1.439       .  S
C139        C398   1.438       .  S
N140        N141   1.322   1_545  A
N140        N146   1.317   1_545  A
N140       Mn148   2.209   1_655  S
N141        C149   1.352       .  A
N142        N144   1.317   1_565  A
N142        N143   1.321       .  A
N142       Mn160   2.202   1_554  S
N143        C150   1.350       .  A
N144        N145   1.322   1_545  A
N144       Mn148   2.209       .  S
N145        C150   1.352       .  A
N146        N147   1.321       .  A
N146       Mn160   2.202   1_654  S
N147        C149   1.350       .  A
Mn148      Cl161   2.554   1_554  S
C149        C256   1.438       .  S
C150        C350   1.438       .  S
N151        N152   1.322   1_545  A
N151        N157   1.317   1_545  A
N151       Mn159   2.210       .  S
N152        C162   1.352       .  A
N153        N154   1.321       .  A
N153        N155   1.317   1_565  A
N153       Mn160   2.202   1_655  S
N154        C163   1.350       .  A
N155        N156   1.322   1_545  A
N155       Mn159   2.210   1_655  S
N156        C163   1.352       .  A
N157        N158   1.321       .  A
N157       Mn160   2.201       .  S
N158        C162   1.350       .  A
Mn159      Cl161   2.554       .  S
Mn160      Cl161   2.544   1_565  S
C162        C273   1.438       .  S
C163        C233   1.438       .  S
C164        C223   1.475       .  S
C164        C225   1.476       .  S
C164        C227   1.476       .  S
C164        C313   1.464       .  S
C165        C219   1.476       .  S
C165        C222   1.479       .  S
C165        C228   1.476       .  S
C165        C232   1.467       .  S
C166        C217   1.476       .  S
C166        C220   1.476       .  S
C166        C224   1.475       .  S
C166        C360   1.464       .  S
C167        C216   1.467       .  S
C167        C218   1.476       .  S
C167        C221   1.479       .  S
C167        C226   1.476       .  S
N168        N169   1.321       .  A
N168        N174   1.317       .  A
N168       Mn197   2.202       .  S
N169        C176   1.350       .  A
N170        N172   1.317       .  A
N170        N171   1.322       .  A
N170       Mn186   2.210   1_655  S
N171        C177   1.352       .  A
N172        N173   1.321       .  A
N172       Mn197   2.202   1_655  S
N173        C177   1.350       .  A
N174        N175   1.322       .  A
N174       Mn186   2.209       .  S
N175        C176   1.352       .  A
C176        C342   1.438       .  S
C177        C266   1.438       .  S
N178        N184   1.317       .  A
N178        N179   1.321       .  A
N178       Mn208   2.202   1_655  S
N179        C187   1.350       .  A
N180        N181   1.322       .  A
N180        N182   1.317       .  A
N180       Mn186   2.210       .  S
N181        C188   1.352       .  A
N182        N183   1.321       .  A
N182       Mn208   2.202       .  S
N183        C188   1.350       .  A
N184        N185   1.322       .  A
N184       Mn186   2.210   1_655  S
N185        C187   1.352       .  A
Mn186      Cl210   2.554       .  S
C187        C213   1.439       .  S
C188        C412   1.438       .  S
N189        N190   1.321       .  A
N189        N195   1.317       .  A
N189       Mn197   2.202   1_655  S
N190        C198   1.350       .  A
N191        N193   1.317       .  A
N191        N192   1.322       .  A
N191       Mn209   2.209       .  S
N192        C199   1.352       .  A
N193        N194   1.321       .  A
N193       Mn197   2.202       .  S
N194        C199   1.350       .  A
N195        N196   1.322       .  A
N195       Mn209   2.210   1_655  S
N196        C198   1.352       .  A
Mn197      Cl210   2.544       .  S
C198        C246   1.438       .  S
C199        C279   1.438       .  S
N200        N201   1.321       .  A
N200        N206   1.317       .  A
N200       Mn208   2.202       .  S
N201        C211   1.350       .  A
N202        N203   1.322       .  A
N202        N204   1.317       .  A
N202       Mn209   2.210   1_655  S
N203        C212   1.352       .  A
N204        N205   1.321       .  A
N204       Mn208   2.202   1_655  S
N205        C212   1.350       .  A
N206        N207   1.322       .  A
N206       Mn209   2.210       .  S
N207        C211   1.352       .  A
Mn208      Cl210   2.544       .  S
Mn209      Cl210   2.554       .  S
C211        C387   1.438       .  S
C212        C306   1.438       .  S
C213        C214   1.207       .  T
C214        C215   1.415       .  S
C215        C216   1.208       .  T
C217        C218   1.213       .  T
C219        C220   1.213       .  T
C221        C222   1.215       .  T
C223        C224   1.212       .  T
C225        C226   1.213       .  T
C227        C228   1.213       .  T
C229        C230   1.207       .  T
C230        C231   1.415       .  S
C231        C232   1.208       .  T
C233        C234   1.207       .  T
C234        C235   1.414       .  S
C235        C236   1.208       .  T
C237        C238   1.213       .  T
C239        C240   1.213       .  T
C241        C242   1.215       .  T
C243        C244   1.208       .  T
C244        C245   1.414       .  S
C245        C246   1.207       .  T
C247        C248   1.212       .  T
C249        C250   1.213       .  T
C251        C252   1.213       .  T
C253        C254   1.208       .  T
C254        C255   1.414       .  S
C255        C256   1.207       .  T
C257        C258   1.213       .  T
C259        C260   1.213       .  T
C261        C262   1.215       .  T
C263        C264   1.208       .  T
C264        C265   1.415       .  S
C265        C266   1.207       .  T
C267        C268   1.212       .  T
C269        C270   1.213       .  T
C271        C272   1.213       .  T
C273        C274   1.207       .  T
C274        C275   1.414       .  S
C275        C276   1.208       .  T
C277        C278   1.215       .  T
C279        C280   1.207       .  T
C280        C281   1.414       .  S
C281        C282   1.208       .  T
C283        C284   1.213       .  T
C285        C286   1.213       .  T
C287        C288   1.213       .  T
C289        C290   1.213       .  T
C291        C292   1.212       .  T
C293        C294   1.207       .  T
C294        C295   1.415       .  S
C295        C296   1.208       .  T
C297        C298   1.213       .  T
C299        C300   1.213       .  T
C301        C302   1.215       .  T
C303        C304   1.208       .  T
C304        C305   1.414       .  S
C305        C306   1.207       .  T
C307        C308   1.212       .  T
C309        C310   1.213       .  T
C311        C312   1.213       .  T
C313        C314   1.206       .  T
C314        C315   1.412       .  S
C315        C316   1.205       .  T
C317        C318   1.205       .  T
C318        C319   1.411       .  S
C319        C320   1.206       .  T
C321        C322   1.205       .  T
C322        C323   1.411       .  S
C323        C324   1.206       .  T
C325        C326   1.205       .  T
C326        C327   1.411       .  S
C327        C328   1.206       .  T
C329        C330   1.205       .  T
C330        C331   1.412       .  S
C331        C332   1.206       .  T
C333        C334   1.206       .  T
C334        C335   1.411       .  S
C335        C336   1.205       .  T
C337        C338   1.213       .  T
C339        C340   1.208       .  T
C340        C341   1.414       .  S
C341        C342   1.207       .  T
C343        C344   1.215       .  T
C345        C346   1.213       .  T
C347        C348   1.208       .  T
C348        C349   1.414       .  S
C349        C350   1.207       .  T
C351        C352   1.212       .  T
C353        C354   1.213       .  T
C355        C356   1.213       .  T
C357        C358   1.205       .  T
C358        C359   1.411       .  S
C359        C360   1.206       .  T
C361        C362   1.205       .  T
C362        C363   1.412       .  S
C363        C364   1.206       .  T
C365        C366   1.206       .  T
C366        C367   1.411       .  S
C367        C368   1.205       .  T
C369        C370   1.205       .  T
C370        C371   1.411       .  S
C371        C372   1.206       .  T
C373        C374   1.206       .  T
C374        C375   1.412       .  S
C375        C376   1.205       .  T
C377        C378   1.205       .  T
C378        C379   1.411       .  S
C379        C380   1.206       .  T
C381        C382   1.205       .  T
C382        C383   1.411       .  S
C383        C384   1.206       .  T
C385        C386   1.213       .  T
C387        C388   1.207       .  T
C388        C389   1.414       .  S
C389        C390   1.208       .  T
C391        C392   1.213       .  T
C393        C394   1.215       .  T
C395        C396   1.208       .  T
C396        C397   1.414       .  S
C397        C398   1.207       .  T
C399        C400   1.212       .  T
C401        C402   1.213       .  T
C403        C404   1.213       .  T
C405        C406   1.206       .  T
C406        C407   1.411       .  S
C407        C408   1.205       .  T
C409        C410   1.208       .  T
C410        C411   1.414       .  S
C411        C412   1.207       .  T
C413        C414   1.215       .  T
C415        C416   1.208       .  T
C416        C417   1.414       .  S
C417        C418   1.207       .  T
C419        C420   1.213       .  T
C421        C422   1.213       .  T
C423        C424   1.206       .  T
C424        C425   1.411       .  S
C425        C426   1.205       .  T
C427        C428   1.212       .  T
C429        C430   1.213       .  T
C431        C432   1.213       .  T
C433        C434   1.205       .  T
C434        C435   1.411       .  S
C435        C436   1.206       .  T
