geometry optimzed in LAMMPS
_audit_creation_date              2020-11-30 
_audit_creation_method            'lammps2cif' 
_symmetry_space_group_name_H-M    'P1' 
_symmetry_Int_Tables_number       1 
_symmetry_cell_setting            triclinic 
loop_ 
_symmetry_equiv_pos_as_xyz 
  x,y,z 
_cell_length_a                    24.91349204 
_cell_length_b                    46.889441263887754 
_cell_length_c                    25.92304211666689 
_cell_angle_alpha                 83.9691361066699 
_cell_angle_beta                  91.99730169970691 
_cell_angle_gamma                 90.15750708559106 
loop_ 
_atom_site_label 
_atom_site_type_symbol 
_atom_site_fract_x 
_atom_site_fract_y 
_atom_site_fract_z 
_atom_site_charge 
N1          N  0.41808916  0.25638276  0.97186152    -0.36600
N2          N  0.49017470  0.20647410  0.99413967    -0.57200
N3          N  0.58121339  0.24531295  0.99221427    -0.36600
N4          N  0.50963663  0.29543870  0.96762746    -0.57200
C5          C  0.38127544  0.23502361  0.97233075     0.26900
C6          C  0.39142873  0.28177543  0.96472036     0.26900
C7          C  0.60718566  0.21980050  0.99443026     0.26900
C8          C  0.61719601  0.26612007  0.97776027     0.26900
C9          C  0.44254695  0.19258878  0.99754915     0.35600
C10         C  0.52895897  0.18690198  0.00950684     0.35600
C11         C  0.47024393  0.31501604  0.97084017     0.35600
C12         C  0.55703319  0.30908417  0.97386508     0.35600
C13         C  0.33053372  0.24706531  0.96324280    -0.21900
C14         C  0.33685821  0.27638923  0.95883300    -0.21900
C15         C  0.66043286  0.22463253  0.98195207    -0.21900
C16         C  0.66669131  0.25373512  0.97153877    -0.21900
C17         C  0.45138248  0.16382991  0.01449039    -0.23000
C18         C  0.50598226  0.16025460  0.02195486    -0.23000
C19         C  0.49297611  0.34156741  0.97671181    -0.23000
C20         C  0.54777925  0.33783891  0.97848039    -0.23000
C21         C  0.39100182  0.20522894  0.98632303    -0.18300
C22         C  0.41404430  0.30940026  0.96926604    -0.18300
C23         C  0.60858977  0.29604291  0.97586378    -0.18300
C24         C  0.58494550  0.19223612  0.00839433    -0.18300
H25         H  0.29245694  0.23592594  0.96230135     0.14600
H26         H  0.30449240  0.29187215  0.95373780     0.14600
H27         H  0.69194106  0.20888784  0.98097926     0.14600
H28         H  0.70384972  0.26457619  0.96136937     0.14600
H29         H  0.42160529  0.14708105  0.02073284     0.12900
H30         H  0.52644945  0.14027904  0.03465183     0.12900
H31         H  0.47229147  0.36154939  0.97982372     0.12900
H32         H  0.57738331  0.35436366  0.98339210     0.12900
H33         H  0.45842102  0.25374730  0.98113923     0.26100
H34         H  0.54340753  0.24859217  0.00605251     0.26100
N35         N  0.91922086  0.49677495  0.02080727    -0.36600
N36         N  0.00638860  0.45493618  0.02378915    -0.57200
N37         N  0.08244368  0.50127894  0.03120603    -0.36600
N38         N  0.99561737  0.04302673  0.03113740    -0.57200
C39         C  0.89159971  0.47189143  0.02970543     0.26900
C40         C  0.88577153  0.01839714  0.02926562     0.26900
C41         C  0.11629962  0.47851395  0.03635265     0.26900
C42         C  0.11044526  0.02433259  0.04456778     0.26900
C43         C  0.96441549  0.43798571  0.01267403     0.35600
C44         C  0.05147382  0.44110928  0.01252299     0.35600
C45         C  0.95071170  0.05895955  0.01946589     0.35600
C46         C  0.03785273  0.06126028  0.02734116     0.35600
C47         C  0.83988613  0.47787675  0.04368337    -0.21900
C48         C  0.83623930  0.00712143  0.04345106    -0.21900
C49         C  0.16643779  0.48715220  0.05374041    -0.21900
C50         C  0.16269522  0.01598184  0.05911935    -0.21900
C51         C  0.98312429  0.41278456  0.99598109    -0.23000
C52         C  0.03817204  0.41484504  0.99560269    -0.23000
C53         C  0.96432250  0.08763004  0.00940101    -0.23000
C54         C  0.01952518  0.08908659  0.01419849    -0.23000
C55         C  0.90968096  0.44446914  0.01949360    -0.18300
C56         C  0.89758698  0.04810199  0.02162434    -0.18300
C57         C  0.09253894  0.05320568  0.03674664    -0.18300
C58         C  0.10456295  0.45114852  0.02013610    -0.18300
H59         H  0.80748206  0.46289341  0.05205525     0.14600
H60         H  0.80068914  0.01874866  0.05193788     0.14600
H61         H  0.20250727  0.47429804  0.06036263     0.14600
H62         H  0.19542210  0.02950540  0.07038619     0.14600
H63         H  0.95975656  0.39467377  0.98540197     0.12900
H64         H  0.06527263  0.39863181  0.98488256     0.12900
H65         H  0.93730614  0.10559497  0.99980138     0.12900
H66         H  0.04337986  0.10843717  0.00894154     0.12900
H67         H  0.95604695  0.49921325  0.00334855     0.26100
H68         H  0.04533345  0.50199448  0.01178108     0.26100
O69         O  0.14679136  0.08288479  0.98118973    -0.80900
O70         O  0.31757563  0.17531052  0.96291297    -0.65600
O71         O  0.24596831  0.10536237  0.00547658    -1.12200
C72         C  0.15396287  0.16348521  0.11351761     1.06000
O73         O  0.33152092  0.18195459  0.04588160    -0.78800
O74         O  0.28352926  0.15236523  0.12754986    -0.66400
Ni75       Ni  0.21892864  0.08072449  0.95778622     1.34900
C76         C  0.27392242  0.12586262  0.13897294     0.84700
O77         O  0.32447936  0.12188894  0.93370807    -0.79400
O78         O  0.28936395  0.07750948  0.93169582    -0.89600
C79         C  0.34361773  0.18680911  0.99845572     0.84300
O80         O  0.20152703  0.10828294  0.90003551    -0.67800
O81         O  0.19169500  0.18169771  0.10452068    -0.87100
C82         C  0.20673293  0.13526836  0.89085253     0.85100
C83         C  0.32290226  0.09711909  0.91698850     1.06700
H84         H  0.20685628  0.16777380  0.00458010     0.38500
O85         O  0.23299450  0.15627921  0.02585303    -1.09800
O86         O  0.24496745  0.11104221  0.10994401    -0.66400
Ni87       Ni  0.19730246  0.12170731  0.04949583     1.26300
O88         O  0.23030401  0.15059134  0.92260554    -0.66700
O89         O  0.15056909  0.13972266  0.09353866    -0.79000
C90         C  0.13455187  0.07544758  0.02781685     0.84500
O91         O  0.15900944  0.08628827  0.06511813    -0.66100
Ni92       Ni  0.26049142  0.18081561  0.07348309     1.27400
Ni93       Ni  0.28037954  0.13991769  0.98053901     1.26100
H94         H  0.27214501  0.09421634  0.02727686     0.39000
O95         O  0.83844170  0.07416715  0.06841273    -0.80900
O96         O  0.64654860  0.15683243  0.05223066    -0.65600
O97         O  0.73461541  0.09142228  0.03707975    -1.12200
C98         C  0.81336919  0.15662896  0.90752812     1.06000
O99         O  0.63331701  0.15828302  0.96771226    -0.78800
O100        O  0.69074836  0.13612196  0.89514872    -0.66400
Ni101      Ni  0.76689448  0.06832717  0.09352196     1.34900
C102        C  0.70512745  0.11023927  0.89453592     0.84700
O103        O  0.65051497  0.10225233  0.10192055    -0.79400
O104        O  0.69774174  0.06128249  0.12252885    -0.89600
C105        C  0.62216627  0.16737000  0.01040150     0.84300
O106        O  0.77938548  0.09693537  0.13923905    -0.67800
O107        O  0.77185119  0.17230066  0.91067037    -0.87100
C108        C  0.76659248  0.12303924  0.14035660     0.85100
C109        C  0.65803443  0.07775746  0.12831801     1.06700
H110        H  0.75914428  0.15596149  0.01456268     0.38500
O111        O  0.73618336  0.14284026  0.99762886    -1.09800
O112        O  0.73509252  0.09708603  0.93041490    -0.66400
Ni113      Ni  0.77952084  0.11102998  0.98640253     1.26300
O114        O  0.73770837  0.13696519  0.10446944    -0.66700
O115        O  0.82157086  0.13259426  0.93505832    -0.79000
C116        C  0.85214227  0.06829860  0.02400895     0.84500
O117        O  0.82582367  0.07847991  0.98321020    -0.66100
Ni118      Ni  0.70323552  0.16501089  0.94044646     1.27400
Ni119      Ni  0.69176092  0.12350478  0.04915397     1.26100
H120        H  0.71135957  0.07871421  0.01956970     0.39000
O121        O  0.86320679  0.41597067  0.96261617    -0.80900
O122        O  0.68851354  0.32264933  0.95187726    -0.65600
O123        O  0.76130881  0.39210194  0.97544140    -1.12200
C124        C  0.83114541  0.33549427  0.12509060     1.06000
O125        O  0.66341757  0.31973282  0.03336498    -0.78800
O126        O  0.70312164  0.34906158  0.10928181    -0.66400
Ni127      Ni  0.79634631  0.41541571  0.92317272     1.34900
C128        C  0.71236760  0.37567336  0.10949547     0.84700
O129        O  0.68831509  0.37493779  0.90034388    -0.79400
O130        O  0.73206705  0.41666630  0.88011452    -0.89600
C131        C  0.65621476  0.31371545  0.98701145     0.84300
O132        O  0.82420253  0.38590229  0.88670842    -0.67800
O133        O  0.79448927  0.31733635  0.11635920    -0.87100
C134        C  0.81567896  0.35931558  0.88474597     0.85100
C135        C  0.69491171  0.39860956  0.87243278     1.06700
H136        H  0.79487613  0.32939344  0.00905719     0.38500
O137        O  0.76730246  0.34164005  0.02010590    -1.09800
O138        O  0.74667608  0.38895498  0.08030124    -0.66400
Ni139      Ni  0.80141084  0.37632201  0.03567983     1.26300
O140        O  0.78168548  0.34524822  0.91360624    -0.66700
O141        O  0.83892840  0.35896464  0.09662111    -0.79000
C142        C  0.86826248  0.42285137  0.00863121     0.84500
O143        O  0.83850391  0.41159038  0.04418427    -0.66100
Ni144      Ni  0.73046506  0.31927429  0.07276591     1.27400
Ni145      Ni  0.72713183  0.35749668  0.95991809     1.26100
H146        H  0.73345972  0.40410309  0.98669868     0.39000
O147        O  0.37933864  0.34079917  0.02638804    -0.80900
O148        O  0.18017620  0.42056286  0.04297381    -0.65600
O149        O  0.27163083  0.35833212  0.01913142    -1.12200
C150        C  0.32336984  0.42150941  0.87016532     1.06000
O151        O  0.15751267  0.43023755  0.95960765    -0.78800
O152        O  0.20202685  0.40360105  0.88326251    -0.66400
Ni153      Ni  0.32040678  0.34257706  0.07294409     1.34900
C154        C  0.21302121  0.37717283  0.88299033     0.84700
O155        O  0.19343058  0.36684362  0.09062517    -0.79400
O156        O  0.26509708  0.34127693  0.12428761    -0.89600
C157        C  0.15018024  0.43312148  0.00709750     0.84300
O158        O  0.34754591  0.37830926  0.09318090    -0.67800
O159        O  0.28743338  0.43876088  0.88242854    -0.87100
C160        C  0.32004096  0.39986216  0.10225773     0.85100
C161        C  0.21660827  0.34997579  0.12679905     1.06700
H162        H  0.28956996  0.42228949  0.99116473     0.38500
O163        O  0.26357231  0.40966975  0.97668738    -1.09800
O164        O  0.24568582  0.36351737  0.91551806    -0.66400
Ni165      Ni  0.30298290  0.37743594  0.95847996     1.26300
O166        O  0.27333724  0.40499887  0.08270868    -0.66700
O167        O  0.33321578  0.39732915  0.89663766    -0.79000
C168        C  0.37674579  0.33260493  0.98099879     0.84500
O169        O  0.34307465  0.34386763  0.94678618    -0.66100
Ni170      Ni  0.22456205  0.43318917  0.92388653     1.27400
Ni171      Ni  0.22644436  0.38908999  0.03320169     1.26100
H172        H  0.24903708  0.34284130  0.00928134     0.39000
C173        C  0.00167147  0.18727557  0.45546864     0.02200
C174        C  0.94588543  0.18482248  0.46355809     0.02200
C175        C  0.92754172  0.18421717  0.51415486    -0.18300
C176        C  0.96379016  0.18575334  0.55656551     0.02200
C177        C  0.01940143  0.18972353  0.54828841     0.02200
C178        C  0.03762765  0.19059174  0.49744489    -0.18300
H179        H  0.08030444  0.19228058  0.49086537     0.04300
H180        H  0.88513227  0.18103088  0.52087187     0.04300
C181        C  0.04939550  0.29547767  0.47533920     0.02200
C182        C  0.99300500  0.29224957  0.47967898     0.02200
C183        C  0.96981676  0.29129641  0.52864279    -0.18300
C184        C  0.00125987  0.29476346  0.57360636     0.02200
C185        C  0.05802380  0.29626281  0.56984067     0.02200
C186        C  0.08130469  0.29584392  0.52096439    -0.18300
H187        H  0.12432984  0.29862288  0.51789223     0.04300
H188        H  0.92645874  0.29055478  0.53092418     0.04300
C189        C  0.54208713  0.44609063  0.42137199     0.02200
C190        C  0.48784955  0.45590750  0.42124436     0.02200
C191        C  0.46399175  0.45913384  0.46920222    -0.18300
C192        C  0.49204888  0.45222062  0.51671642     0.02200
C193        C  0.54763012  0.44600257  0.51558807     0.02200
C194        C  0.57180631  0.44276462  0.46851811    -0.18300
H195        H  0.61357139  0.43625736  0.46898361     0.04300
H196        H  0.42232481  0.46553091  0.46982654     0.04300
C197        C  0.50398478  0.04849734  0.47990891     0.02200
C198        C  0.44801889  0.05285307  0.48459167     0.02200
C199        C  0.42833288  0.05465740  0.53426179    -0.18300
C200        C  0.46304528  0.05336051  0.57834616     0.02200
C201        C  0.51881141  0.04926834  0.57377640     0.02200
C202        C  0.53847945  0.04617903  0.52448902    -0.18300
H203        H  0.58140253  0.04423458  0.52022236     0.04300
H204        H  0.38598085  0.05880468  0.53835413     0.04300
C205        C  0.33866595  0.41754662  0.14284583    -0.01300
C206        C  0.30467559  0.41980437  0.18403615    -0.09400
C207        C  0.32233598  0.43246911  0.22759892    -0.18200
C208        C  0.37487817  0.44350156  0.23111106     0.04200
C209        C  0.40694944  0.44442681  0.18663356     0.18400
C210        C  0.38923557  0.43068791  0.14326649    -0.19600
C211        C  0.45707180  0.45805134  0.18690170    -0.20900
C212        C  0.47741394  0.46889994  0.23168512    -0.19400
C213        C  0.44952339  0.46470200  0.27789919     0.19800
C214        C  0.39766853  0.45211806  0.27808139     0.01900
C215        C  0.37302784  0.44591542  0.32621478    -0.14200
C216        C  0.40133211  0.44882525  0.37252694    -0.11900
C217        C  0.45376679  0.45969271  0.37248829     0.01400
C218        C  0.47515565  0.47040735  0.32480297    -0.24000
H219        H  0.26487730  0.41038758  0.18364819     0.09500
H220        H  0.29416353  0.43304351  0.25810850     0.13000
H221        H  0.41486702  0.42977280  0.11053560     0.11700
H222        H  0.48119355  0.45970331  0.15273435     0.12900
H223        H  0.51697806  0.47859335  0.23120819     0.12000
H224        H  0.33402874  0.43606418  0.32974739     0.09000
H225        H  0.38316806  0.44048178  0.40832505     0.12300
H226        H  0.51447385  0.48026116  0.32413697     0.14200
C227        C  0.35228633  0.42919622  0.82068499    -0.01300
C228        C  0.33695928  0.45343328  0.78667792    -0.09400
C229        C  0.35763170  0.45845612  0.73678415    -0.18200
C230        C  0.39497788  0.43944111  0.71879356     0.04200
C231        C  0.41144911  0.41529948  0.75371488     0.18400
C232        C  0.39055659  0.41057614  0.80385670    -0.19600
C233        C  0.44756891  0.39541119  0.73789301    -0.20900
C234        C  0.46646579  0.39840862  0.68778107    -0.19400
C235        C  0.45093488  0.42179126  0.65237127     0.19800
C236        C  0.41602541  0.44308273  0.66740750     0.01900
C237        C  0.40385202  0.46679450  0.63010449    -0.14200
C238        C  0.42779122  0.46985558  0.58129969    -0.11900
C239        C  0.46258142  0.44875897  0.56702172     0.01400
C240        C  0.47090878  0.42404679  0.60205616    -0.24000
H241        H  0.30732634  0.46823808  0.79794042     0.09500
H242        H  0.34293602  0.47715743  0.71272553     0.13000
H243        H  0.40276959  0.39164603  0.82914581     0.11700
H244        H  0.46058935  0.37705010  0.76421961     0.12900
H245        H  0.49392580  0.38239084  0.67675858     0.12000
H246        H  0.37704531  0.48365734  0.63814625     0.09000
H247        H  0.41963060  0.48895500  0.55495850     0.12300
H248        H  0.49447633  0.40659686  0.59051172     0.14200
C249        C  0.18733830  0.34059549  0.17523484    -0.01300
C250        C  0.14286867  0.35599074  0.18919454    -0.09400
C251        C  0.11864776  0.34897768  0.23695042    -0.18200
C252        C  0.13797723  0.32606634  0.27278390     0.04200
C253        C  0.18138274  0.30961538  0.25757817     0.18400
C254        C  0.20575139  0.31709477  0.20962749    -0.19600
C255        C  0.20073408  0.28602443  0.29068397    -0.20900
C256        C  0.17836266  0.27858807  0.33884368    -0.19400
C257        C  0.13650275  0.29478331  0.35577283     0.19800
C258        C  0.11611475  0.31896285  0.32313247     0.01900
C259        C  0.07583330  0.33547389  0.34299829    -0.14200
C260        C  0.05626267  0.32812834  0.39251842    -0.11900
C261        C  0.07410045  0.30345189  0.42364760     0.01400
C262        C  0.11502261  0.28705440  0.40520756    -0.24000
H263        H  0.12749444  0.37411729  0.16365792     0.09500
H264        H  0.08484839  0.36195758  0.24476164     0.13000
H265        H  0.23964826  0.30466862  0.19931273     0.11700
H266        H  0.23353617  0.27319705  0.27924970     0.12900
H267        H  0.19424622  0.26013543  0.36323361     0.12000
H268        H  0.05939797  0.35460305  0.32163439     0.09000
H269        H  0.02654012  0.34191294  0.40662482     0.12300
H270        H  0.12991951  0.26822589  0.42923936     0.14200
C271        C  0.19104359  0.36328746  0.83841554    -0.01300
C272        C  0.19057554  0.37947288  0.78986812    -0.09400
C273        C  0.17415934  0.36758053  0.74523102    -0.18200
C274        C  0.15657069  0.33891163  0.74751666     0.04200
C275        C  0.15399063  0.32281515  0.79705349     0.18400
C276        C  0.17298357  0.33479061  0.84205710    -0.19600
C277        C  0.13146141  0.29526337  0.80101420    -0.20900
C278        C  0.11004110  0.28390039  0.75702543    -0.19400
C279        C  0.11331797  0.29917745  0.70773184     0.19800
C280        C  0.13921200  0.32626259  0.70228219     0.01900
C281        C  0.14634658  0.33979099  0.65168413    -0.14200
C282        C  0.12318813  0.32859416  0.60864934    -0.11900
C283        C  0.09250893  0.30353183  0.61445783     0.01400
C284        C  0.08965022  0.28814770  0.66385683    -0.24000
H285        H  0.20431549  0.40153091  0.78611123     0.09500
H286        H  0.17425973  0.38170473  0.70964702     0.13000
H287        H  0.17252311  0.32232180  0.87970427     0.11700
H288        H  0.12880690  0.28283069  0.83851173     0.12900
H289        H  0.09095198  0.26303393  0.76155372     0.12000
H290        H  0.16923818  0.35922815  0.64412239     0.09000
H291        H  0.12663692  0.34058833  0.57084508     0.12300
H292        H  0.06680233  0.26840736  0.66834200     0.14200
C293        C  0.57986452  0.44139906  0.56430717    -0.01300
C294        C  0.58128187  0.46280308  0.59792074    -0.09400
C295        C  0.59679421  0.45627694  0.64979999    -0.18200
C296        C  0.61048719  0.42792969  0.66960810     0.04200
C297        C  0.61281165  0.40680170  0.63417558     0.18400
C298        C  0.59877726  0.41389914  0.58162277    -0.19600
C299        C  0.62726828  0.37855310  0.65170983    -0.20900
C300        C  0.64059037  0.37091481  0.70376246    -0.19400
C301        C  0.63931620  0.39133450  0.73936610     0.19800
C302        C  0.62293231  0.41997590  0.72309445     0.01900
C303        C  0.62116836  0.43961089  0.76091812    -0.14200
C304        C  0.64131539  0.43205795  0.81118244    -0.11900
C305        C  0.66103566  0.40447576  0.82560681     0.01400
C306        C  0.65724407  0.38373303  0.79067319    -0.24000
H307        H  0.56705741  0.48422646  0.58459174     0.09500
H308        H  0.59656376  0.47369945  0.67358270     0.13000
H309        H  0.59743319  0.39738178  0.55527767     0.11700
H310        H  0.62868865  0.36232673  0.62493152     0.12900
H311        H  0.65283321  0.34902156  0.71610276     0.12000
H312        H  0.60653178  0.46124927  0.75255392     0.09000
H313        H  0.64350641  0.44812098  0.83833670     0.12300
H314        H  0.67285297  0.36233086  0.80214997     0.14200
C315        C  0.68326936  0.39089700  0.14801123    -0.01300
C316        C  0.70640248  0.41433508  0.16992172    -0.09400
C317        C  0.68385199  0.42511798  0.21292230    -0.18200
C318        C  0.63701356  0.41278580  0.23552018     0.04200
C319        C  0.61184617  0.39025900  0.21102216     0.18400
C320        C  0.63506354  0.37956646  0.16813706    -0.19600
C321        C  0.56438680  0.37789135  0.23035179    -0.20900
C322        C  0.54202151  0.38681875  0.27439558    -0.19400
C323        C  0.56686891  0.40807974  0.30085513     0.19800
C324        C  0.61462431  0.42152346  0.28182231     0.01900
C325        C  0.63846209  0.44248440  0.31087919    -0.14200
C326        C  0.61561406  0.44985366  0.35641493    -0.11900
C327        C  0.56778494  0.43709009  0.37415370     0.01400
C328        C  0.54427114  0.41580404  0.34652046    -0.24000
H329        H  0.74354975  0.42353540  0.15534469     0.09500
H330        H  0.70448963  0.44279459  0.22824780     0.13000
H331        H  0.61627926  0.36164365  0.15130178     0.11700
H332        H  0.54466675  0.36091595  0.21156084     0.12900
H333        H  0.50542283  0.37664338  0.28839185     0.12000
H334        H  0.67507168  0.45335482  0.29962222     0.09000
H335        H  0.63504776  0.46596063  0.37758291     0.12300
H336        H  0.50782554  0.40541740  0.36048959     0.14200
C337        C  0.84617108  0.34561362  0.84458660    -0.01300
C338        C  0.83317346  0.31858280  0.82878392    -0.09400
C339        C  0.85824391  0.30837748  0.78615893    -0.18200
C340        C  0.89682424  0.32513504  0.75731351     0.04200
C341        C  0.91021144  0.35221325  0.77411046     0.18400
C342        C  0.88589434  0.36176439  0.81728708    -0.19600
C343        C  0.94695775  0.37021793  0.74698809    -0.20900
C344        C  0.97029913  0.36222826  0.70284411    -0.19400
C345        C  0.95830589  0.33578466  0.68493972     0.19800
C346        C  0.92208240  0.31656951  0.71208245     0.01900
C347        C  0.91286583  0.28988030  0.69238582    -0.14200
C348        C  0.93830932  0.28272550  0.64774652    -0.11900
C349        C  0.97372459  0.30189959  0.62126146     0.01400
C350        C  0.98264011  0.32857245  0.63988530    -0.24000
H351        H  0.80250012  0.30561646  0.84843081     0.09500
H352        H  0.84572555  0.28763293  0.77577260     0.13000
H353        H  0.89701168  0.38266503  0.82854803     0.11700
H354        H  0.95719146  0.39093192  0.75960279     0.12900
H355        H  0.99810742  0.37688205  0.68256568     0.12000
H356        H  0.88650712  0.27419332  0.71121278     0.09000
H357        H  0.93077625  0.26205347  0.63404645     0.12300
H358        H  0.00905799  0.34383476  0.61913926     0.14200
C359        C  0.86219621  0.33023184  0.17405762    -0.01300
C360        C  0.86164738  0.35111510  0.20874776    -0.09400
C361        C  0.87942340  0.34460607  0.26012774    -0.18200
C362        C  0.89934391  0.31701250  0.27787484     0.04200
C363        C  0.90460851  0.29683222  0.24107671     0.18400
C364        C  0.88440521  0.30325667  0.18998244    -0.19600
C365        C  0.92960438  0.27040209  0.25573532    -0.20900
C366        C  0.95019741  0.26383450  0.30611296    -0.19400
C367        C  0.94295238  0.28265906  0.34381904     0.19800
C368        C  0.91534440  0.30899722  0.33060001     0.01900
C369        C  0.90449665  0.32609425  0.37080307    -0.14200
C370        C  0.92523934  0.31878618  0.42105500    -0.11900
C371        C  0.95772000  0.29452968  0.43237411     0.01400
C372        C  0.96425338  0.27580860  0.39442023    -0.24000
H373        H  0.84440307  0.37207946  0.19684514     0.09500
H374        H  0.87740200  0.36158711  0.28501307     0.13000
H375        H  0.88517042  0.28720620  0.16278402     0.11700
H376        H  0.93437115  0.25501761  0.22780431     0.12900
H377        H  0.97099626  0.24367669  0.31580179     0.12000
H378        H  0.88061102  0.34536553  0.36436839     0.09000
H379        H  0.91936273  0.33332419  0.45020794     0.12300
H380        H  0.98815082  0.25668438  0.40392673     0.14200
C381        C  0.52786900  0.05106170  0.42819978    -0.01300
C382        C  0.55376420  0.02786926  0.41007955    -0.09400
C383        C  0.57125215  0.02983287  0.35909262    -0.18200
C384        C  0.56248168  0.05505707  0.32465465     0.04200
C385        C  0.53665141  0.07852610  0.34402501     0.18400
C386        C  0.52111344  0.07657040  0.39555109    -0.19600
C387        C  0.52609363  0.10386067  0.31189811    -0.20900
C388        C  0.54222064  0.10687848  0.26098602    -0.19400
C389        C  0.56972884  0.08472443  0.24115012     0.19800
C390        C  0.57944878  0.05825348  0.27223716     0.01900
C391        C  0.60729751  0.03664150  0.24991314    -0.14200
C392        C  0.62885783  0.04214236  0.20081464    -0.11900
C393        C  0.62251513  0.06908027  0.17195706     0.01400
C394        C  0.59026641  0.08963375  0.19131637    -0.24000
H395        H  0.55950045  0.00806195  0.43513469     0.09500
H396        H  0.59096707  0.01125775  0.34757795     0.13000
H397        H  0.50174624  0.09468710  0.41001959     0.11700
H398        H  0.50569647  0.12161675  0.32643883     0.12900
H399        H  0.53441394  0.12701228  0.23738042     0.12000
H400        H  0.61509578  0.01573014  0.27023675     0.09000
H401        H  0.65309552  0.02566914  0.18665785     0.12300
H402        H  0.58481227  0.11050397  0.16945369     0.14200
C403        C  0.68741519  0.09637719  0.84755018    -0.01300
C404        C  0.66774379  0.06824646  0.84948396    -0.09400
C405        C  0.64501482  0.05772264  0.80453286    -0.18200
C406        C  0.64171415  0.07509458  0.75613280     0.04200
C407        C  0.66477427  0.10292389  0.75427563     0.18400
C408        C  0.68702648  0.11310409  0.79934641    -0.19600
C409        C  0.66413297  0.12100193  0.70773295    -0.20900
C410        C  0.63901219  0.11263499  0.66311839    -0.19400
C411        C  0.61372396  0.08595828  0.66373696     0.19800
C412        C  0.61535598  0.06648035  0.70987328     0.01900
C413        C  0.58895201  0.03981246  0.70775653    -0.14200
C414        C  0.56031745  0.03349632  0.66265600    -0.11900
C415        C  0.55703005  0.05334804  0.61825960     0.01400
C416        C  0.58512702  0.07919303  0.61878138    -0.24000
H417        H  0.66796402  0.05479216  0.88609764     0.09500
H418        H  0.62940517  0.03616035  0.80889679     0.13000
H419        H  0.70321907  0.13469262  0.79713794     0.11700
H420        H  0.68223031  0.14211576  0.70607537     0.12900
H421        H  0.63827877  0.12747359  0.62809348     0.12000
H422        H  0.58854087  0.02380011  0.74080009     0.09000
H423        H  0.53886568  0.01340815  0.66305009     0.12300
H424        H  0.58242870  0.09474474  0.58471857     0.14200
C425        C  0.78498970  0.13614088  0.18797150    -0.01300
C426        C  0.79783732  0.16525296  0.18864351    -0.09400
C427        C  0.81916068  0.17557996  0.23434581    -0.18200
C428        C  0.82790117  0.15697416  0.28084719     0.04200
C429        C  0.81272747  0.12781037  0.27989666     0.18400
C430        C  0.79146194  0.11794288  0.23433723    -0.19600
C431        C  0.82000866  0.10818811  0.32408953    -0.20900
C432        C  0.84368789  0.11657529  0.36923140    -0.19400
C433        C  0.86043753  0.14486303  0.37157415     0.19800
C434        C  0.85219311  0.16572081  0.32785493     0.01900
C435        C  0.86997516  0.19402093  0.33309371    -0.14200
C436        C  0.89741098  0.20066947  0.37857076    -0.11900
C437        C  0.90757331  0.17958301  0.42013132     0.01400
C438        C  0.88724454  0.15202411  0.41703014    -0.24000
H439        H  0.79290058  0.17984053  0.15354666     0.09500
H440        H  0.82931054  0.19804406  0.23204042     0.13000
H441        H  0.78048164  0.09550647  0.23487422     0.11700
H442        H  0.80824930  0.08594903  0.32343468     0.12900
H443        H  0.84979693  0.10064236  0.40234998     0.12000
H444        H  0.86437380  0.21118651  0.30227690     0.09000
H445        H  0.91204247  0.22217540  0.38106168     0.12300
H446        H  0.89535391  0.13561973  0.44906434     0.14200
C447        C  0.85071828  0.16555883  0.86568733    -0.01300
C448        C  0.89111713  0.14690406  0.85345346    -0.09400
C449        C  0.91500603  0.15080728  0.80527954    -0.18200
C450        C  0.89810724  0.17322114  0.76740069     0.04200
C451        C  0.86130943  0.19371376  0.78222344     0.18400
C452        C  0.83906203  0.19007870  0.83132642    -0.19600
C453        C  0.84370724  0.21656661  0.74670315    -0.20900
C454        C  0.85977918  0.21875320  0.69574535    -0.19400
C455        C  0.89453154  0.19847601  0.67933974     0.19800
C456        C  0.91449316  0.17542721  0.71490644     0.01900
C457        C  0.94794101  0.15493369  0.69569621    -0.14200
C458        C  0.96174641  0.15766342  0.64374464    -0.11900
C459        C  0.94350259  0.18103854  0.60966505     0.01400
C460        C  0.90908916  0.20102182  0.62730023    -0.24000
H461        H  0.90189597  0.12812827  0.87972919     0.09500
H462        H  0.94469826  0.13518325  0.79803184     0.13000
H463        H  0.80880008  0.20510560  0.84073354     0.11700
H464        H  0.81581295  0.23232136  0.75791057     0.12900
H465        H  0.84402579  0.23613707  0.66864243     0.12000
H466        H  0.96384955  0.13652019  0.71965935     0.09000
H467        H  0.98796462  0.14181732  0.63026944     0.12300
H468        H  0.89462455  0.21891166  0.60055823     0.14200
C469        C  0.44158062  0.06037372  0.62771634    -0.01300
C470        C  0.43117663  0.08890676  0.63480297    -0.09400
C471        C  0.41571221  0.09624336  0.68288163    -0.18200
C472        C  0.41059810  0.07502585  0.72551746     0.04200
C473        C  0.42103823  0.04603932  0.71759900     0.18400
C474        C  0.43577536  0.03901573  0.66884257    -0.19600
C475        C  0.41725792  0.02425819  0.75847440    -0.20900
C476        C  0.40065283  0.03036875  0.80669497    -0.19400
C477        C  0.38892840  0.05857558  0.81553616     0.19800
C478        C  0.39508603  0.08142630  0.77549940     0.01900
C479        C  0.38460885  0.10962347  0.78707395    -0.14200
C480        C  0.36598139  0.11471283  0.83531276    -0.11900
C481        C  0.35669257  0.09197485  0.87341239     0.01400
C482        C  0.36952475  0.06399808  0.86376123    -0.24000
H483        H  0.43610857  0.10564565  0.60318261     0.09500
H484        H  0.40840023  0.11867010  0.68538410     0.13000
H485        H  0.44438996  0.01699278  0.66317496     0.11700
H486        H  0.42698082  0.00232157  0.75299191     0.12900
H487        H  0.39676026  0.01289615  0.83720786     0.12000
H488        H  0.38903670  0.12817784  0.75934045     0.09000
H489        H  0.35529542  0.13645702  0.84146202     0.12300
H490        H  0.36213839  0.04628415  0.89304883     0.14200
C491        C  0.41142646  0.06016809  0.43779970    -0.01300
C492        C  0.38376757  0.08633945  0.43261338    -0.09400
C493        C  0.35761433  0.09664522  0.38581020    -0.18200
C494        C  0.35840557  0.08114204  0.34183126     0.04200
C495        C  0.38359364  0.05377393  0.34795287     0.18400
C496        C  0.40930852  0.04342357  0.39573488    -0.19600
C497        C  0.38433296  0.03734668  0.30583496    -0.20900
C498        C  0.36145131  0.04762589  0.25756229    -0.19400
C499        C  0.33763564  0.07484746  0.24974000     0.19800
C500        C  0.33596250  0.09201315  0.29189023     0.01900
C501        C  0.31313461  0.11965962  0.28187916    -0.14200
C502        C  0.29356935  0.12992404  0.23236750    -0.11900
C503        C  0.29487958  0.11308259  0.19078290     0.01400
C504        C  0.31628328  0.08526219  0.19990531    -0.24000
H505        H  0.38465744  0.09969957  0.46428469     0.09500
H506        H  0.33812903  0.11716224  0.38508481     0.13000
H507        H  0.42998451  0.02295344  0.39945903     0.11700
H508        H  0.40312346  0.01644761  0.31015612     0.12900
H509        H  0.36316411  0.03433262  0.22588809     0.12000
H510        H  0.31054420  0.13416758  0.31126506     0.09000
H511        H  0.27672996  0.15136151  0.22663026     0.12300
H512        H  0.31776713  0.07210273  0.16801462     0.14200
C513        C  0.18646467  0.14848398  0.83938171    -0.01300
C514        C  0.15766434  0.17428644  0.83312075    -0.09400
C515        C  0.13520357  0.18477124  0.78428750    -0.18200
C516        C  0.14178977  0.16984627  0.74001999     0.04200
C517        C  0.17401881  0.14465516  0.74641914     0.18400
C518        C  0.19532390  0.13419546  0.79558141    -0.19600
C519        C  0.18391468  0.12955024  0.70395991    -0.20900
C520        C  0.16025110  0.13800923  0.65552533    -0.19400
C521        C  0.12555124  0.16158481  0.64839950     0.19800
C522        C  0.11658253  0.17831565  0.69009393     0.01900
C523        C  0.08098560  0.20190873  0.68032155    -0.14200
C524        C  0.05279083  0.20726173  0.63250377    -0.11900
C525        C  0.05894394  0.18926760  0.59308332     0.01400
C526        C  0.09744177  0.16742591  0.60050407    -0.24000
H527        H  0.15097605  0.18585441  0.86635678     0.09500
H528        H  0.11245307  0.20439813  0.78241922     0.13000
H529        H  0.21877371  0.11456160  0.79995213     0.11700
H530        H  0.20925423  0.11063215  0.70849757     0.12900
H531        H  0.16769981  0.12538588  0.62379143     0.12000
H532        H  0.07239481  0.21579510  0.70959741     0.09000
H533        H  0.02360860  0.22450605  0.62733697     0.12300
H534        H  0.10238414  0.15342796  0.57024690     0.14200
C535        C  0.02302527  0.18335967  0.40422181    -0.01300
C536        C  0.01605181  0.15710142  0.38378107    -0.09400
C537        C  0.03026373  0.15389829  0.33321246    -0.18200
C538        C  0.05221713  0.17707363  0.30143924     0.04200
C539        C  0.06056023  0.20344658  0.32314893     0.18400
C540        C  0.04696115  0.20613857  0.37447919    -0.19600
C541        C  0.08230188  0.22701454  0.29348080    -0.20900
C542        C  0.09897850  0.22455286  0.24361170    -0.19400
C543        C  0.09364474  0.19851167  0.22205333     0.19800
C544        C  0.06823506  0.17472857  0.24974008     0.01900
C545        C  0.06181805  0.14935887  0.22506920    -0.14200
C546        C  0.08543770  0.14663741  0.17779744    -0.11900
C547        C  0.11548262  0.16917525  0.15342869     0.01400
C548        C  0.11641896  0.19562521  0.17419757    -0.24000
H549        H  0.99873116  0.13904865  0.40697931     0.09500
H550        H  0.02371580  0.13303340  0.32028600     0.13000
H551        H  0.05421455  0.22610516  0.39101769     0.11700
H552        H  0.08709177  0.24736992  0.30926172     0.12900
H553        H  0.11740488  0.24294023  0.22227937     0.12000
H554        H  0.04067402  0.13085445  0.24222474     0.09000
H555        H  0.08316763  0.12610137  0.16220458     0.12300
H556        H  0.13844532  0.21346523  0.15506910     0.14200
N557        N  0.41809408  0.75638498  0.97185167    -0.36600
N558        N  0.49018031  0.70647736  0.99414095    -0.57200
N559        N  0.58121763  0.74531733  0.99221792    -0.36600
N560        N  0.50964108  0.79544227  0.96763449    -0.57200
C561        C  0.38127925  0.73502575  0.97233221     0.26900
C562        C  0.39143250  0.78177777  0.96472586     0.26900
C563        C  0.60719014  0.71980527  0.99442902     0.26900
C564        C  0.61719838  0.76612469  0.97775988     0.26900
C565        C  0.44255332  0.69259079  0.99754352     0.35600
C566        C  0.52896566  0.68690552  0.00950636     0.35600
C567        C  0.47024801  0.81501893  0.97084811     0.35600
C568        C  0.55703670  0.80908776  0.97387494     0.35600
C569        C  0.33053584  0.74706768  0.96326198    -0.21900
C570        C  0.33686038  0.77639144  0.95885473    -0.21900
C571        C  0.66043522  0.72463780  0.98194301    -0.21900
C572        C  0.66669224  0.75374037  0.97152999    -0.21900
C573        C  0.45139051  0.66383149  0.01447998    -0.23000
C574        C  0.50599035  0.66025716  0.02194791    -0.23000
C575        C  0.49297932  0.84157000  0.97672511    -0.23000
C576        C  0.54778234  0.83784187  0.97849514    -0.23000
C577        C  0.39100720  0.70523050  0.98631884    -0.18300
C578        C  0.41404891  0.80940269  0.96927157    -0.18300
C579        C  0.60859270  0.79604709  0.97586827    -0.18300
C580        C  0.58495208  0.69224075  0.00839481    -0.18300
H581        H  0.29245828  0.73592850  0.96233205     0.14600
H582        H  0.30449365  0.79187412  0.95377380     0.14600
H583        H  0.69194297  0.70889345  0.98096424     0.14600
H584        H  0.70384880  0.76458187  0.96135530     0.14600
H585        H  0.42161431  0.64708172  0.02071699     0.12900
H586        H  0.52645858  0.64028146  0.03464157     0.12900
H587        H  0.47229431  0.86155157  0.97983954     0.12900
H588        H  0.57738590  0.85436650  0.98340989     0.12900
H589        H  0.45843112  0.75374893  0.98110248     0.26100
H590        H  0.54341364  0.74859591  0.00606209     0.26100
N591        N  0.91922194  0.99677565  0.02080280    -0.36600
N592        N  0.00639117  0.95493715  0.02378136    -0.57200
N593        N  0.08244395  0.00127951  0.03119944    -0.36600
N594        N  0.99561798  0.54302671  0.03113980    -0.57200
C595        C  0.89160120  0.97189201  0.02969830     0.26900
C596        C  0.88577165  0.51839697  0.02927007     0.26900
C597        C  0.11630027  0.97851472  0.03634856     0.26900
C598        C  0.11044642  0.52433231  0.04457143     0.26900
C599        C  0.96441839  0.93798625  0.01266788     0.35600
C600        C  0.05147681  0.94110946  0.01251892     0.35600
C601        C  0.95071231  0.55895938  0.01946653     0.35600
C602        C  0.03785367  0.56126018  0.02734375     0.35600
C603        C  0.83988642  0.97787677  0.04367416    -0.21900
C604        C  0.83623998  0.50712164  0.04345879    -0.21900
C605        C  0.16643709  0.98715293  0.05373972    -0.21900
C606        C  0.16269707  0.51598135  0.05911969    -0.21900
C607        C  0.98312772  0.91278399  0.99597944    -0.23000
C608        C  0.03817578  0.91484426  0.99560230    -0.23000
C609        C  0.96432348  0.58762980  0.00940063    -0.23000
C610        C  0.01952617  0.58908640  0.01419943    -0.23000
C611        C  0.90968387  0.94447011  0.01948625    -0.18300
C612        C  0.89758719  0.54810187  0.02162519    -0.18300
C613        C  0.09254021  0.55320570  0.03674987    -0.18300
C614        C  0.10456533  0.95114909  0.02013314    -0.18300
H615        H  0.80748195  0.96289337  0.05204353     0.14600
H616        H  0.80069074  0.51874930  0.05194674     0.14600
H617        H  0.20250631  0.97429875  0.06036474     0.14600
H618        H  0.19542521  0.52950494  0.07038347     0.14600
H619        H  0.95975997  0.89467257  0.98540319     0.12900
H620        H  0.06527713  0.89863029  0.98488614     0.12900
H621        H  0.93730735  0.60559471  0.99979972     0.12900
H622        H  0.04338085  0.60843698  0.00894211     0.12900
H623        H  0.95604893  0.99921430  0.00334608     0.26100
H624        H  0.04533537  0.00199536  0.01177132     0.26100
O625        O  0.14678674  0.58288724  0.98119020    -0.80900
O626        O  0.31757997  0.67531151  0.96290903    -0.65600
O627        O  0.24596729  0.60536386  0.00546988    -1.12200
C628        C  0.15396941  0.66348560  0.11351792     1.06000
O629        O  0.33152581  0.68195560  0.04587755    -0.78800
O630        O  0.28353362  0.65236610  0.12754531    -0.66400
Ni631      Ni  0.21892124  0.58072767  0.95777955     1.34900
C632        C  0.27392915  0.62586305  0.13896610     0.84700
O633        O  0.32447674  0.62189028  0.93370081    -0.79400
O634        O  0.28935323  0.57751280  0.93168248    -0.89600
C635        C  0.34362324  0.68680974  0.99845173     0.84300
O636        O  0.20151509  0.60828829  0.90003345    -0.67800
O637        O  0.19169955  0.68169905  0.10451803    -0.87100
C638        C  0.20672584  0.63527349  0.89085104     0.85100
C639        C  0.32289475  0.59712130  0.91697815     1.06700
H640        H  0.20685832  0.66777505  0.00457802     0.38500
O641        O  0.23299743  0.65628040  0.02584984    -1.09800
O642        O  0.24497559  0.61104258  0.10993649    -0.66400
Ni643      Ni  0.19730586  0.62170814  0.04949331     1.26300
O644        O  0.23030408  0.65059499  0.92260205    -0.66700
O645        O  0.15057676  0.63972257  0.09354070    -0.79000
C646        C  0.13455277  0.57544813  0.02781814     0.84500
O647        O  0.15901389  0.58628848  0.06511793    -0.66100
Ni648      Ni  0.26049591  0.68081678  0.07347942     1.27400
Ni649      Ni  0.28038034  0.63991909  0.98053376     1.26100
H650        H  0.27214439  0.59421667  0.02726775     0.39000
O651        O  0.83844007  0.57416658  0.06841210    -0.80900
O652        O  0.64656005  0.65683945  0.05222996    -0.65600
O653        O  0.73461671  0.59142600  0.03707748    -1.12200
C654        C  0.81337696  0.65663037  0.90752609     1.06000
O655        O  0.63332544  0.65828900  0.96771181    -0.78800
O656        O  0.69075288  0.63612750  0.89514647    -0.66400
Ni657      Ni  0.76689156  0.56832923  0.09351995     1.34900
C658        C  0.70512771  0.61024425  0.89453184     0.84700
O659        O  0.65051958  0.60226036  0.10192066    -0.79400
O660        O  0.69773704  0.56128741  0.12252597    -0.89600
C661        C  0.62217506  0.66737577  0.01040140     0.84300
O662        O  0.77938761  0.59693639  0.13923820    -0.67800
O663        O  0.77186074  0.67230333  0.91066923    -0.87100
C664        C  0.76660243  0.62304142  0.14035464     0.85100
C665        C  0.65803323  0.57776460  0.12831627     1.06700
H666        H  0.75915441  0.65596417  0.01455976     0.38500
O667        O  0.73619109  0.64284365  0.99762656    -1.09800
O668        O  0.73509290  0.59708966  0.93041003    -0.66400
Ni669      Ni  0.77952415  0.61103193  0.98639950     1.26300
O670        O  0.73772065  0.63696892  0.10446724    -0.66700
O671        O  0.82157630  0.63259512  0.93505543    -0.79000
C672        C  0.85214207  0.56829864  0.02400831     0.84500
O673        O  0.82582473  0.57848047  0.98320876    -0.66100
Ni674      Ni  0.70324447  0.66501539  0.94044549     1.27400
Ni675      Ni  0.69176788  0.62351036  0.04915305     1.26100
H676        H  0.71135843  0.57871919  0.01956716     0.39000
O677        O  0.86320511  0.91597151  0.96261234    -0.80900
O678        O  0.68851553  0.82265311  0.95188140    -0.65600
O679        O  0.76130646  0.89210611  0.97544532    -1.12200
C680        C  0.83114737  0.83550101  0.12509268     1.06000
O681        O  0.66341843  0.81973741  0.03336894    -0.78800
O682        O  0.70311747  0.84906975  0.10928140    -0.66400
Ni683      Ni  0.79633930  0.91542134  0.92317614     1.34900
C684        C  0.71236845  0.87568087  0.10949728     0.84700
O685        O  0.68831473  0.87494179  0.90034667    -0.79400
O686        O  0.73205390  0.91667528  0.88012626    -0.89600
C687        C  0.65621722  0.81371922  0.98701583     0.84300
O688        O  0.82418590  0.88591003  0.88670133    -0.67800
O689        O  0.79448601  0.81734488  0.11636760    -0.87100
C690        C  0.81566922  0.85932250  0.88474228     0.85100
C691        C  0.69490394  0.89861605  0.87244043     1.06700
H692        H  0.79487445  0.82939702  0.00906196     0.38500
O693        O  0.76730186  0.84164445  0.02011002    -1.09800
O694        O  0.74668222  0.88896072  0.08030677    -0.66400
Ni695      Ni  0.80141221  0.87632618  0.03568095     1.26300
O696        O  0.78168559  0.84525278  0.91361049    -0.66700
O697        O  0.83893419  0.85896918  0.09661872    -0.79000
C698        C  0.86826551  0.92285239  0.00862688     0.84500
O699        O  0.83850781  0.91159332  0.04418190    -0.66100
Ni700      Ni  0.73046377  0.81928073  0.07277190     1.27400
Ni701      Ni  0.72713130  0.85750080  0.95992185     1.26100
H702        H  0.73345713  0.90410638  0.98670475     0.39000
O703        O  0.37934457  0.84080276  0.02639203    -0.80900
O704        O  0.18017738  0.92056321  0.04297475    -0.65600
O705        O  0.27163695  0.85833430  0.01913449    -1.12200
C706        C  0.32338568  0.92151422  0.87017604     1.06000
O707        O  0.15752365  0.93024281  0.95960710    -0.78800
O708        O  0.20204330  0.90360960  0.88326543    -0.66400
Ni709      Ni  0.32041301  0.84258045  0.07294793     1.34900
C710        C  0.21303214  0.87718099  0.88299111     0.84700
O711        O  0.19343425  0.86684388  0.09062540    -0.79400
O712        O  0.26510357  0.84128044  0.12429100    -0.89600
C713        C  0.15018449  0.93312294  0.00709701     0.84300
O714        O  0.34754949  0.87831350  0.09318340    -0.67800
O715        O  0.28745285  0.93876705  0.88244179    -0.87100
C716        C  0.32004104  0.89986456  0.10226341     0.85100
C717        C  0.21661383  0.84997795  0.12680115     1.06700
H718        H  0.28957893  0.92229088  0.99117420     0.38500
O719        O  0.26358089  0.90967252  0.97669374    -1.09800
O720        O  0.24569313  0.86352282  0.91551927    -0.66400
Ni721      Ni  0.30299055  0.87743878  0.95848472     1.26300
O722        O  0.27333700  0.90500007  0.08271469    -0.66700
O723        O  0.33322638  0.89733239  0.89664465    -0.79000
C724        C  0.37675105  0.83260761  0.98100352     0.84500
O725        O  0.34308050  0.84387022  0.94679032    -0.66100
Ni726      Ni  0.22457717  0.93319520  0.92389365     1.27400
Ni727      Ni  0.22644885  0.88909147  0.03320401     1.26100
H728        H  0.24904459  0.84284319  0.00928351     0.39000
C729        C  0.00167747  0.68728101  0.45546586     0.02200
C730        C  0.94589198  0.68482776  0.46355737     0.02200
C731        C  0.92755048  0.68422205  0.51415479    -0.18300
C732        C  0.96380058  0.68575930  0.55656374     0.02200
C733        C  0.01941088  0.68973190  0.54828433     0.02200
C734        C  0.03763516  0.69059917  0.49744015    -0.18300
H735        H  0.08031145  0.69228906  0.49085861     0.04300
H736        H  0.88514159  0.68103483  0.52087365     0.04300
C737        C  0.04939434  0.79548711  0.47533796     0.02200
C738        C  0.99300419  0.79225618  0.47967721     0.02200
C739        C  0.96981451  0.79130277  0.52864015    -0.18300
C740        C  0.00125528  0.79477374  0.57360285     0.02200
C741        C  0.05801824  0.79627932  0.56983703     0.02200
C742        C  0.08130160  0.79585989  0.52096261    -0.18300
H743        H  0.12432590  0.79864347  0.51789108     0.04300
H744        H  0.92645654  0.79055827  0.53092114     0.04300
C745        C  0.54208129  0.94609012  0.42137709     0.02200
C746        C  0.48784418  0.95590765  0.42125190     0.02200
C747        C  0.46398961  0.95913555  0.46921033    -0.18300
C748        C  0.49204943  0.95222336  0.51672308     0.02200
C749        C  0.54762979  0.94600378  0.51559267     0.02200
C750        C  0.57180276  0.94276412  0.46852203    -0.18300
H751        H  0.61356724  0.93625596  0.46898613     0.04300
H752        H  0.42232306  0.96553313  0.46983635     0.04300
C753        C  0.50397167  0.54849737  0.47990255     0.02200
C754        C  0.44800435  0.55284817  0.48458507     0.02200
C755        C  0.42831680  0.55465131  0.53425465    -0.18300
C756        C  0.46302877  0.55335842  0.57833859     0.02200
C757        C  0.51879617  0.54927008  0.57377052     0.02200
C758        C  0.53846628  0.54618206  0.52448314    -0.18300
H759        H  0.58138997  0.54424087  0.52021677     0.04300
H760        H  0.38596344  0.55879529  0.53834672     0.04300
C761        C  0.33866160  0.91754748  0.14285501    -0.01300
C762        C  0.30467298  0.91979811  0.18404918    -0.09400
C763        C  0.32233002  0.93246297  0.22761297    -0.18200
C764        C  0.37486731  0.94350242  0.23112251     0.04200
C765        C  0.40693592  0.94443332  0.18664225     0.18400
C766        C  0.38922507  0.93069511  0.14327359    -0.19600
C767        C  0.45705386  0.95806230  0.18690897    -0.20900
C768        C  0.47739657  0.96890884  0.23169378    -0.19400
C769        C  0.44950986  0.96470612  0.27790940     0.19800
C770        C  0.39765691  0.95211972  0.27809277     0.01900
C771        C  0.37301805  0.94591613  0.32622703    -0.14200
C772        C  0.40132416  0.94882551  0.37253850    -0.11900
C773        C  0.45375875  0.95969315  0.37249803     0.01400
C774        C  0.47514462  0.97040971  0.32481285    -0.24000
H775        H  0.26487907  0.91037602  0.18366277     0.09500
H776        H  0.29415921  0.93303123  0.25812535     0.13000
H777        H  0.41485467  0.92978518  0.11053990     0.11700
H778        H  0.48117288  0.95971850  0.15273963     0.12900
H779        H  0.51695847  0.97860484  0.23121601     0.12000
H780        H  0.33401872  0.93606536  0.32976088     0.09000
H781        H  0.38316181  0.94048172  0.40833735     0.12300
H782        H  0.51446232  0.98026421  0.32414630     0.14200
C783        C  0.35230333  0.92920127  0.82069675    -0.01300
C784        C  0.33697949  0.95343986  0.78669231    -0.09400
C785        C  0.35764946  0.95846247  0.73679772    -0.18200
C786        C  0.39499110  0.93944611  0.71880427     0.04200
C787        C  0.41146087  0.91530339  0.75372367     0.18400
C788        C  0.39056980  0.91057988  0.80386598    -0.19600
C789        C  0.44757715  0.89541415  0.73789920    -0.20900
C790        C  0.46647107  0.89841152  0.68778623    -0.19400
C791        C  0.45094047  0.92179490  0.65237812     0.19800
C792        C  0.41603525  0.94308747  0.66741708     0.01900
C793        C  0.40386185  0.96679981  0.63011526    -0.14200
C794        C  0.42779853  0.96986062  0.58130938    -0.11900
C795        C  0.46258477  0.94876285  0.56702925     0.01400
C796        C  0.47091009  0.92404991  0.60206171    -0.24000
H797        H  0.30735014  0.96824591  0.79795719     0.09500
H798        H  0.34295567  0.97716486  0.71274099     0.13000
H799        H  0.40278048  0.89164865  0.82915327     0.11700
H800        H  0.46059684  0.87705234  0.76422440     0.12900
H801        H  0.49392819  0.88239301  0.67676145     0.12000
H802        H  0.37705717  0.98366318  0.63815867     0.09000
H803        H  0.41963874  0.98896045  0.55496893     0.12300
H804        H  0.49447238  0.90659880  0.59051439     0.14200
C805        C  0.18734538  0.84059863  0.17523783    -0.01300
C806        C  0.14287377  0.85599311  0.18919469    -0.09400
C807        C  0.11865235  0.84898084  0.23695018    -0.18200
C808        C  0.13798294  0.82607088  0.27278591     0.04200
C809        C  0.18139091  0.80962058  0.25758348     0.18400
C810        C  0.20576126  0.81709978  0.20963363    -0.19600
C811        C  0.20074133  0.78602997  0.29069089    -0.20900
C812        C  0.17836549  0.77859305  0.33884849    -0.19400
C813        C  0.13650419  0.79478843  0.35577493     0.19800
C814        C  0.11611821  0.81896795  0.32313328     0.01900
C815        C  0.07583642  0.83547979  0.34299658    -0.14200
C816        C  0.05626336  0.82813513  0.39251570    -0.11900
C817        C  0.07409975  0.80345914  0.42364648     0.01400
C818        C  0.11502155  0.78706040  0.40520878    -0.24000
H819        H  0.12749785  0.87411830  0.16365574     0.09500
H820        H  0.08485062  0.86195977  0.24475852     0.13000
H821        H  0.23966033  0.80467447  0.19932127     0.11700
H822        H  0.23354523  0.77320301  0.27925909     0.12900
H823        H  0.19424763  0.76014043  0.36323947     0.12000
H824        H  0.05940318  0.85460922  0.32163188     0.09000
H825        H  0.02654019  0.84192011  0.40662021     0.12300
H826        H  0.12991693  0.76823207  0.42924214     0.14200
C827        C  0.19104793  0.86329855  0.83841538    -0.01300
C828        C  0.19054944  0.87949149  0.78987406    -0.09400
C829        C  0.17412616  0.86760310  0.74523534    -0.18200
C830        C  0.15656159  0.83893042  0.74751307     0.04200
C831        C  0.15401033  0.82282577  0.79704471     0.18400
C832        C  0.17300979  0.83479788  0.84204929    -0.19600
C833        C  0.13150341  0.79526888  0.80099972    -0.20900
C834        C  0.11007719  0.78390842  0.75701095    -0.19400
C835        C  0.11332770  0.79919352  0.70772186     0.19800
C836        C  0.13919981  0.82628467  0.70227645     0.01900
C837        C  0.14631221  0.83982147  0.65168054    -0.14200
C838        C  0.12315525  0.82862436  0.60864538    -0.11900
C839        C  0.09249799  0.80355435  0.61445211     0.01400
C840        C  0.08965760  0.78816474  0.66384739    -0.24000
H841        H  0.20427108  0.90155275  0.78612211     0.09500
H842        H  0.17420208  0.88173279  0.70965697     0.13000
H843        H  0.17257181  0.82232308  0.87969177     0.11700
H844        H  0.12887097  0.78282980  0.83849342     0.12900
H845        H  0.09100571  0.76303728  0.76153539     0.12000
H846        H  0.16918727  0.85926451  0.64412100     0.09000
H847        H  0.12658873  0.84062268  0.57084290     0.12300
H848        H  0.06682602  0.76841890  0.66832996     0.14200
C849        C  0.57986601  0.94139993  0.56431067    -0.01300
C850        C  0.58129334  0.96280602  0.59791994    -0.09400
C851        C  0.59680530  0.95628109  0.64979967    -0.18200
C852        C  0.61048427  0.92793285  0.66961323     0.04200
C853        C  0.61279892  0.90680222  0.63418505     0.18400
C854        C  0.59876820  0.91389855  0.58163104    -0.19600
C855        C  0.62724177  0.87855235  0.65172486    -0.20900
C856        C  0.64056138  0.87091548  0.70377853    -0.19400
C857        C  0.63929765  0.89133790  0.73937781     0.19800
C858        C  0.62292540  0.91998055  0.72310083     0.01900
C859        C  0.62116834  0.93961800  0.76092071    -0.14200
C860        C  0.64131402  0.93206592  0.81118586    -0.11900
C861        C  0.66102616  0.90448244  0.82561493     0.01400
C862        C  0.65722479  0.88373763  0.79068558    -0.24000
H863        H  0.56707776  0.98423057  0.58458718     0.09500
H864        H  0.59658624  0.97370536  0.67357870     0.13000
H865        H  0.59741652  0.89737962  0.55528916     0.11700
H866        H  0.62865377  0.86232390  0.62494998     0.12900
H867        H  0.65279429  0.84902111  0.71612299     0.12000
H868        H  0.60653813  0.96125743  0.75255268     0.09000
H869        H  0.64351106  0.94813056  0.83833684     0.12300
H870        H  0.67282619  0.86233425  0.80216569     0.14200
C871        C  0.68326894  0.89090533  0.14801143    -0.01300
C872        C  0.70640334  0.91434170  0.16992644    -0.09400
C873        C  0.68385113  0.92512364  0.21292730    -0.18200
C874        C  0.63701017  0.91279196  0.23552120     0.04200
C875        C  0.61184148  0.89026739  0.21101817     0.18400
C876        C  0.63505986  0.87957621  0.16813234    -0.19600
C877        C  0.56438015  0.87790018  0.23034399    -0.20900
C878        C  0.54201401  0.88682573  0.27438889    -0.19400
C879        C  0.56686225  0.90808459  0.30085315     0.19800
C880        C  0.61461980  0.92152780  0.28182426     0.01900
C881        C  0.63845877  0.94248618  0.31088601    -0.14200
C882        C  0.61560985  0.94985363  0.35642244    -0.11900
C883        C  0.56777826  0.93709115  0.37415705     0.01400
C884        C  0.54426331  0.91580726  0.34651924    -0.24000
H885        H  0.74355281  0.92354111  0.15535311     0.09500
H886        H  0.70448969  0.94279885  0.22825658     0.13000
H887        H  0.61627421  0.86165497  0.15129326     0.11700
H888        H  0.54465932  0.86092637  0.21154930     0.12900
H889        H  0.50541394  0.87665061  0.28838213     0.12000
H890        H  0.67507017  0.95335584  0.29963255     0.09000
H891        H  0.63504529  0.96595828  0.37759468     0.12300
H892        H  0.50781634  0.90542092  0.36048552     0.14200
C893        C  0.84615781  0.84562277  0.84457794    -0.01300
C894        C  0.83317156  0.81858859  0.82878375    -0.09400
C895        C  0.85824108  0.80838416  0.78615723    -0.18200
C896        C  0.89680829  0.82514605  0.75730181     0.04200
C897        C  0.91018028  0.85222879  0.77408747     0.18400
C898        C  0.88586592  0.86177875  0.81726607    -0.19600
C899        C  0.94690908  0.87023891  0.74695256    -0.20900
C900        C  0.97024956  0.86224954  0.70280820    -0.19400
C901        C  0.95827496  0.83580050  0.68491730     0.19800
C902        C  0.92206840  0.81658032  0.71207202     0.01900
C903        C  0.91287249  0.78988547  0.69238986    -0.14200
C904        C  0.93831912  0.78273029  0.64775247    -0.11900
C905        C  0.97371705  0.80190956  0.62125576     0.01400
C906        C  0.98261268  0.82858746  0.63986549    -0.24000
H907        H  0.80250871  0.80561848  0.84843934     0.09500
H908        H  0.84573232  0.78763671  0.77577760     0.13000
H909        H  0.89697363  0.88268237  0.82851921     0.11700
H910        H  0.95712996  0.89095666  0.75955805     0.12900
H911        H  0.99804424  0.87690740  0.68252006     0.12000
H912        H  0.88652972  0.77419402  0.71122809     0.09000
H913        H  0.93080313  0.76205391  0.63406366     0.12300
H914        H  0.00901808  0.84385299  0.61911055     0.14200
C915        C  0.86220000  0.83023971  0.17405787    -0.01300
C916        C  0.86164499  0.85112186  0.20874975    -0.09400
C917        C  0.87942099  0.84461249  0.26012944    -0.18200
C918        C  0.89934670  0.81701968  0.27787418     0.04200
C919        C  0.90461799  0.79684112  0.24107393     0.18400
C920        C  0.88441564  0.80326591  0.18997968    -0.19600
C921        C  0.92961808  0.77041200  0.25573079    -0.20900
C922        C  0.95020790  0.76384347  0.30610917    -0.19400
C923        C  0.94295732  0.78266637  0.34381672     0.19800
C924        C  0.91534543  0.80900349  0.33059920     0.01900
C925        C  0.90449227  0.82609862  0.37080355    -0.14200
C926        C  0.92523499  0.81879044  0.42105519    -0.11900
C927        C  0.95771972  0.79453538  0.43237269     0.01400
C928        C  0.96425717  0.77581548  0.39441790    -0.24000
H929        H  0.84439551  0.87208520  0.19684869     0.09500
H930        H  0.87739462  0.86159249  0.28501651     0.13000
H931        H  0.88518545  0.78721654  0.16277938     0.11700
H932        H  0.93438973  0.75502890  0.22779817     0.12900
H933        H  0.97100864  0.74368623  0.31579737     0.12000
H934        H  0.88060292  0.84536862  0.36437006     0.09000
H935        H  0.91935485  0.83332735  0.45020929     0.12300
H936        H  0.98815794  0.75669237  0.40392345     0.14200
C937        C  0.52785549  0.55106353  0.42819299    -0.01300
C938        C  0.55375107  0.52787189  0.41007063    -0.09400
C939        C  0.57123850  0.52983673  0.35908345    -0.18200
C940        C  0.56246791  0.55506163  0.32464723     0.04200
C941        C  0.53663793  0.57853013  0.34401967     0.18400
C942        C  0.52109802  0.57657271  0.39554560    -0.19600
C943        C  0.52608402  0.60386612  0.31189534    -0.20900
C944        C  0.54221612  0.60688610  0.26098467    -0.19400
C945        C  0.56972312  0.58473224  0.24114675     0.19800
C946        C  0.57943640  0.55825945  0.27223008     0.01900
C947        C  0.60727993  0.53664678  0.24990288    -0.14200
C948        C  0.62884390  0.54214865  0.20080614    -0.11900
C949        C  0.62251045  0.56908844  0.17195342     0.01400
C950        C  0.59026563  0.58964306  0.19131491    -0.24000
H951        H  0.55948836  0.50806422  0.43512451     0.09500
H952        H  0.59095530  0.51126230  0.34756799     0.13000
H953        H  0.50172936  0.59468860  0.41001540     0.11700
H954        H  0.50568751  0.62162196  0.32643754     0.12900
H955        H  0.53441375  0.62702122  0.23738177     0.12000
H956        H  0.61507021  0.51573358  0.27022242     0.09000
H957        H  0.65307696  0.52567435  0.18664691     0.12300
H958        H  0.58481763  0.61051462  0.16945554     0.14200
C959        C  0.68740784  0.59638335  0.84754549    -0.01300
C960        C  0.66774481  0.56825086  0.84947709    -0.09400
C961        C  0.64501030  0.55772765  0.80452711    -0.18200
C962        C  0.64169650  0.57510158  0.75612947     0.04200
C963        C  0.66474809  0.60293284  0.75427352     0.18400
C964        C  0.68700391  0.61311283  0.79934346    -0.19600
C965        C  0.66409701  0.62101248  0.70773246    -0.20900
C966        C  0.63897710  0.61264461  0.66311813    -0.19400
C967        C  0.61369699  0.58596581  0.66373543     0.19800
C968        C  0.61533584  0.56648698  0.70987068     0.01900
C969        C  0.58893657  0.53981773  0.70775334    -0.14200
C970        C  0.56030283  0.53350038  0.66265251    -0.11900
C971        C  0.55701206  0.55335211  0.61825575     0.01400
C972        C  0.58510201  0.57919920  0.61877935    -0.24000
H973        H  0.66797646  0.55479424  0.88608855     0.09500
H974        H  0.62940860  0.53616367  0.80888946     0.13000
H975        H  0.70318950  0.63470282  0.79713524     0.11700
H976        H  0.68218792  0.64212784  0.70607548     0.12900
H977        H  0.63823814  0.62748408  0.62809427     0.12000
H978        H  0.58852857  0.52380526  0.74079696     0.09000
H979        H  0.53885508  0.51341096  0.66304640     0.12300
H980        H  0.58240004  0.59475127  0.58471722     0.14200
C981        C  0.78500652  0.63614273  0.18796817    -0.01300
C982        C  0.79785766  0.66525451  0.18863869    -0.09400
C983        C  0.81918214  0.67558182  0.23434035    -0.18200
C984        C  0.82791965  0.65697675  0.28084308     0.04200
C985        C  0.81274593  0.62781291  0.27989336     0.18400
C986        C  0.79148034  0.61794496  0.23433418    -0.19600
C987        C  0.82002509  0.60819129  0.32408745    -0.20900
C988        C  0.84369987  0.61657944  0.36923057    -0.19400
C989        C  0.86044774  0.64486747  0.37157317     0.19800
C990        C  0.85220747  0.66572436  0.32785190     0.01900
C991        C  0.86998873  0.69402467  0.33309012    -0.14200
C992        C  0.89742058  0.70067414  0.37856854    -0.11900
C993        C  0.90757877  0.67958850  0.42013144     0.01400
C994        C  0.88724959  0.65202963  0.41703098    -0.24000
H995        H  0.79292154  0.67984173  0.15354135     0.09500
H996        H  0.82933380  0.69804571  0.23203377     0.13000
H997        H  0.78049904  0.59550865  0.23487231     0.11700
H998        H  0.80826635  0.58595210  0.32343307     0.12900
H999        H  0.84980646  0.60064710  0.40235046     0.12000
H1000       H  0.86439066  0.71118959  0.30227159     0.09000
H1001       H  0.91205376  0.72217993  0.38105806     0.12300
H1002       H  0.89535641  0.63562583  0.44906674     0.14200
C1003       C  0.85072628  0.66555950  0.86568503    -0.01300
C1004       C  0.89112295  0.64690376  0.85344985    -0.09400
C1005       C  0.91501147  0.65080681  0.80527562    -0.18200
C1006       C  0.89811506  0.67322184  0.76739805     0.04200
C1007       C  0.86131896  0.69371500  0.78222200     0.18400
C1008       C  0.83907175  0.69007990  0.83132499    -0.19600
C1009       C  0.84371882  0.71656892  0.74670315    -0.20900
C1010       C  0.85979173  0.71875648  0.69574576    -0.19400
C1011       C  0.89454300  0.69847915  0.67933912     0.19800
C1012       C  0.91450242  0.67542905  0.71490414     0.01900
C1013       C  0.94795078  0.65493607  0.69569274    -0.14200
C1014       C  0.96175874  0.65766769  0.64374168    -0.11900
C1015       C  0.94351515  0.68104356  0.60966375     0.01400
C1016       C  0.90910189  0.70102636  0.62730016    -0.24000
H1017       H  0.90190027  0.62812745  0.87972486     0.09500
H1018       H  0.94470164  0.63518194  0.79802672     0.13000
H1019       H  0.80881142  0.70510747  0.84073295     0.11700
H1020       H  0.81582585  0.73232406  0.75791151     0.12900
H1021       H  0.84404057  0.73614153  0.66864411     0.12000
H1022       H  0.96385806  0.63652181  0.71965468     0.09000
H1023       H  0.98797762  0.64182223  0.63026541     0.12300
H1024       H  0.89463840  0.71891703  0.60055945     0.14200
C1025       C  0.44156132  0.56037224  0.62770633    -0.01300
C1026       C  0.43115735  0.58890550  0.63479115    -0.09400
C1027       C  0.41569405  0.59624287  0.68286940    -0.18200
C1028       C  0.41058103  0.57502586  0.72550615     0.04200
C1029       C  0.42102029  0.54603904  0.71758884     0.18400
C1030       C  0.43575614  0.53901469  0.66883284    -0.19600
C1031       C  0.41724127  0.52425836  0.75846508    -0.20900
C1032       C  0.40064082  0.53036989  0.80668649    -0.19400
C1033       C  0.38891727  0.55857696  0.81552664     0.19800
C1034       C  0.39507126  0.58142710  0.77548806     0.01900
C1035       C  0.38459221  0.60962442  0.78706063    -0.14200
C1036       C  0.36596712  0.61471444  0.83529980    -0.11900
C1037       C  0.35668325  0.59197698  0.87340163     0.01400
C1038       C  0.36951682  0.56400019  0.86375229    -0.24000
H1039       H  0.43608946  0.60564394  0.60317003     0.09500
H1040       H  0.40838321  0.61866980  0.68537099     0.13000
H1041       H  0.44437136  0.51699164  0.66316610     0.11700
H1042       H  0.42696161  0.50232135  0.75298270     0.12900
H1043       H  0.39675018  0.51289776  0.83720060     0.12000
H1044       H  0.38901584  0.62817832  0.75932525     0.09000
H1045       H  0.35527869  0.63645849  0.84144779     0.12300
H1046       H  0.36213321  0.54628674  0.89304169     0.14200
C1047       C  0.41141103  0.56016111  0.43779345    -0.01300
C1048       C  0.38374380  0.58632990  0.43261000    -0.09400
C1049       C  0.35759128  0.59663564  0.38580690    -0.18200
C1050       C  0.35839268  0.58113527  0.34182512     0.04200
C1051       C  0.38358485  0.55376826  0.34794479     0.18400
C1052       C  0.40929911  0.54341779  0.39572689    -0.19600
C1053       C  0.38432941  0.53734267  0.30582480    -0.20900
C1054       C  0.36145004  0.54762302  0.25755175    -0.19400
C1055       C  0.33763403  0.57484455  0.24973089     0.19800
C1056       C  0.33595600  0.59200844  0.29188321     0.01900
C1057       C  0.31313220  0.61965588  0.28187311    -0.14200
C1058       C  0.29357323  0.62992250  0.23236078    -0.11900
C1059       C  0.29488557  0.61308222  0.19077488     0.01400
C1060       C  0.31628683  0.58526128  0.19989561    -0.24000
H1061       H  0.38462687  0.59968847  0.46428349     0.09500
H1062       H  0.33809810  0.61715039  0.38508406     0.13000
H1063       H  0.42997974  0.52294901  0.39944963     0.11700
H1064       H  0.40312236  0.51644419  0.31014456     0.12900
H1065       H  0.36316646  0.53433112  0.22587587     0.12000
H1066       H  0.31054150  0.63416319  0.31126004     0.09000
H1067       H  0.27673618  0.65136052  0.22662427     0.12300
H1068       H  0.31777260  0.57210297  0.16800340     0.14200
C1069       C  0.18645757  0.64849046  0.83938145    -0.01300
C1070       C  0.15765390  0.67429191  0.83312243    -0.09400
C1071       C  0.13519666  0.68477836  0.78428847    -0.18200
C1072       C  0.14179078  0.66985637  0.74001857     0.04200
C1073       C  0.17402272  0.64466630  0.74641674     0.18400
C1074       C  0.19532286  0.63420454  0.79557962    -0.19600
C1075       C  0.18392741  0.62956465  0.70395554    -0.20900
C1076       C  0.16026910  0.63802546  0.65551952    -0.19400
C1077       C  0.12556500  0.66159921  0.64839442     0.19800
C1078       C  0.11658849  0.67832740  0.69009088     0.01900
C1079       C  0.08098865  0.70191920  0.68031851    -0.14200
C1080       C  0.05279618  0.70727215  0.63249946    -0.11900
C1081       C  0.05895435  0.68927908  0.59307807     0.01400
C1082       C  0.09745781  0.66744029  0.60049787    -0.24000
H1083       H  0.15096088  0.68585780  0.86636006     0.09500
H1084       H  0.11244314  0.70440422  0.78242121     0.13000
H1085       H  0.21877489  0.61457143  0.79994937     0.11700
H1086       H  0.20926977  0.61064763  0.70849261     0.12900
H1087       H  0.16772438  0.62540447  0.62378391     0.12000
H1088       H  0.07239317  0.71580411  0.70959540     0.09000
H1089       H  0.02361090  0.72451499  0.62733278     0.12300
H1090       H  0.10240529  0.65344365  0.57023955     0.14200
C1091       C  0.02302852  0.68336412  0.40421842    -0.01300
C1092       C  0.01605271  0.65710566  0.38377872    -0.09400
C1093       C  0.03026094  0.65390202  0.33320920    -0.18200
C1094       C  0.05221431  0.67707685  0.30143457     0.04200
C1095       C  0.06055683  0.70345045  0.32314231     0.18400
C1096       C  0.04696079  0.70614302  0.37447303    -0.19600
C1097       C  0.08229624  0.72701839  0.29347228    -0.20900
C1098       C  0.09897255  0.72455588  0.24360347    -0.19400
C1099       C  0.09364262  0.69851364  0.22204812     0.19800
C1100       C  0.06823432  0.67473056  0.24973647     0.01900
C1101       C  0.06182307  0.64935937  0.22506914    -0.14200
C1102       C  0.08544640  0.64663692  0.17779954    -0.11900
C1103       C  0.11548902  0.66917525  0.15342912     0.01400
C1104       C  0.11642046  0.69562613  0.17419444    -0.24000
H1105       H  0.99873295  0.63905318  0.40697849     0.09500
H1106       H  0.02371059  0.63303715  0.32028339     0.13000
H1107       H  0.05421428  0.72611001  0.39101007     0.11700
H1108       H  0.08708593  0.74737425  0.30925188     0.12900
H1109       H  0.11739757  0.74294319  0.22226969     0.12000
H1110       H  0.04068158  0.63085447  0.24222628     0.09000
H1111       H  0.08318048  0.62609999  0.16220960     0.12300
H1112       H  0.13844550  0.71346631  0.15506485     0.14200
loop_ 
_geom_bond_atom_site_label_1 
_geom_bond_atom_site_label_2 
_geom_bond_distance 
_geom_bond_site_symmetry_2 
_ccdc_geom_bond_type 
N1            C6   1.357       .  A
N1            C5   1.356       .  A
N1           H33   1.030       .  S
N2            C9   1.353       .  A
N2           C10   1.355   1_556  A
N3            C8   1.356       .  A
N3            C7   1.357       .  A
N3           H34   1.037   1_556  S
N4           C11   1.356       .  A
N4           C12   1.354       .  A
C5           C13   1.388       .  A
C5           C21   1.425       .  A
C6           C22   1.426       .  A
C6           C14   1.388       .  A
C7           C15   1.389       .  A
C7           C24   1.421   1_556  A
C8           C23   1.415       .  A
C8           C16   1.386       .  A
C9           C21   1.424       .  A
C9           C17   1.389   1_556  A
C10          C24   1.417       .  A
C10          C18   1.385       .  A
C11          C19   1.387       .  A
C11          C22   1.424       .  A
C12          C20   1.387       .  A
C12          C23   1.421       .  A
C13          C14   1.377       .  A
C13          H25   1.082       .  S
C14          H26   1.082       .  S
C15          C16   1.372       .  A
C15          H27   1.082       .  S
C16          H28   1.082       .  S
C17          C18   1.375       .  A
C17          H29   1.082       .  S
C18          H30   1.082       .  S
C19          C20   1.376       .  A
C19          H31   1.082       .  S
C20          H32   1.082       .  S
C21          C79   1.484       .  S
C22         C168   1.495       .  S
C23         C131   1.483       .  S
C24         C105   1.487       .  S
N35          C39   1.356       .  A
N35         C596   1.354       .  A
N35          H67   1.038       .  S
N36          C43   1.353   1_455  A
N36          C44   1.354       .  A
N37          C41   1.355       .  A
N37         C598   1.354       .  A
N37          H68   1.036       .  S
N38          C45   1.355       .  A
N38          C46   1.354   1_655  A
C39          C47   1.388       .  A
C39          C55   1.418       .  A
C40         N591   1.354   1_545  A
C40          C56   1.418       .  A
C40          C48   1.387       .  A
C41          C49   1.387       .  A
C41          C58   1.418       .  A
C42         N593   1.354       .  A
C42          C57   1.419       .  A
C42          C50   1.388       .  A
C43          C55   1.419       .  A
C43          C51   1.388   1_554  A
C44          C58   1.417       .  A
C44          C52   1.386   1_554  A
C45          C53   1.386       .  A
C45          C56   1.418       .  A
C46          C54   1.388       .  A
C46          C57   1.421       .  A
C47         C604   1.374       .  A
C47          H59   1.081       .  S
C48         C603   1.374   1_545  A
C48          H60   1.082       .  S
C49         C606   1.377       .  A
C49          H61   1.082       .  S
C50         C605   1.377   1_545  A
C50          H62   1.082       .  S
C51          C52   1.375   1_655  A
C51          H63   1.082       .  S
C52          H64   1.082       .  S
C53          C54   1.379   1_655  A
C53          H65   1.083   1_554  S
C54          H66   1.082       .  S
C55         C142   1.485       .  S
C56         C116   1.485       .  S
C57          C90   1.482       .  S
C58         C157   1.487       .  S
O69         Ni75   1.923       .  S
O69          C90   1.270   1_556  A
O70         Ni93   1.919       .  S
O70          C79   1.273       .  A
O71         Ni75   1.885   1_554  S
O71         Ni93   1.894   1_554  S
O71         Ni87   1.909       .  S
O71          H94   0.965       .  S
C72         C547   1.480       .  S
C72          O89   1.278       .  A
C72          O81   1.279       .  A
O73         Ni92   1.930       .  S
O73          C79   1.273   1_554  A
O74         Ni92   1.905       .  S
O74          C76   1.271       .  A
Ni75         O78   1.914       .  S
Ni75         O80   1.911       .  S
C76         C503   1.490       .  S
C76          O86   1.280       .  A
O77         Ni93   1.926       .  S
O77          C83   1.282       .  A
O78          C83   1.278       .  A
O80          C82   1.270       .  A
O81         Ni92   1.921       .  S
C82         C513   1.483       .  S
C82          O88   1.275       .  A
C83         C481   1.472       .  S
H84          O85   0.966       .  S
O85         Ni93   1.911   1_554  S
O85         Ni87   1.901       .  S
O85         Ni92   1.885       .  S
O86         Ni87   1.956       .  S
Ni87         O91   1.926       .  S
Ni87         O89   1.917       .  S
O88         Ni93   1.944       .  S
C90          O91   1.275       .  A
O95        Ni101   1.928       .  S
O95         C116   1.270       .  A
O96        Ni119   1.939       .  S
O96         C105   1.278       .  A
O97        Ni101   1.884       .  S
O97        Ni119   1.906       .  S
O97        Ni113   1.915   1_554  S
O97         H120   0.966       .  S
C98         C447   1.480       .  S
C98         O115   1.282       .  A
C98         O107   1.280       .  A
O99        Ni118   1.916       .  S
O99         C105   1.267   1_556  A
O100       Ni118   1.902       .  S
O100        C102   1.268       .  A
Ni101       O104   1.918       .  S
Ni101       O106   1.899       .  S
C102        C403   1.493       .  S
C102        O112   1.279       .  A
O103       Ni119   1.930       .  S
O103        C109   1.284       .  A
O104        C109   1.279       .  A
O106        C108   1.269       .  A
O107       Ni118   1.915       .  S
C108        C425   1.493       .  S
C108        O114   1.280       .  A
C109        C393   1.483       .  S
H110        O111   0.967   1_554  S
O111       Ni119   1.917   1_556  S
O111       Ni113   1.897       .  S
O111       Ni118   1.884       .  S
O112       Ni113   1.960       .  S
Ni113       O117   1.926       .  S
Ni113       O115   1.924       .  S
O114       Ni119   1.959       .  S
C116        O117   1.274   1_554  A
O121       Ni127   1.925       .  S
O121        C142   1.270   1_556  A
O122       Ni145   1.920       .  S
O122        C131   1.273       .  A
O123       Ni127   1.886       .  S
O123       Ni145   1.904       .  S
O123       Ni139   1.907   1_556  S
O123        H146   0.966       .  S
C124        C359   1.462       .  S
C124        O141   1.277       .  A
C124        O133   1.277       .  A
O125       Ni144   1.926       .  S
O125        C131   1.270   1_554  A
O126       Ni144   1.908       .  S
O126        C128   1.269       .  A
Ni127       O130   1.917       .  S
Ni127       O132   1.902       .  S
C128        C315   1.495       .  S
C128        O138   1.278       .  A
O129       Ni145   1.904       .  S
O129        C135   1.273       .  A
O130        C135   1.277       .  A
O132        C134   1.270       .  A
O133       Ni144   1.919       .  S
C134        C337   1.507       .  S
C134        O140   1.284       .  A
C135        C305   1.456       .  S
H136        O137   0.967       .  S
O137       Ni145   1.908   1_554  S
O137       Ni139   1.907       .  S
O137       Ni144   1.894       .  S
O138       Ni139   1.951       .  S
Ni139       O143   1.921       .  S
Ni139       O141   1.914       .  S
O140       Ni145   1.970       .  S
C142        O143   1.273       .  A
O147       Ni153   1.940       .  S
O147        C168   1.275   1_554  A
O148       Ni171   1.918       .  S
O148        C157   1.268       .  A
O149       Ni153   1.908       .  S
O149       Ni171   1.905       .  S
O149       Ni165   1.916   1_554  S
O149        H172   0.968       .  S
C150        C227   1.503       .  S
C150        O167   1.282       .  A
C150        O159   1.279       .  A
O151       Ni170   1.936       .  S
O151        C157   1.272   1_556  A
O152       Ni170   1.900       .  S
O152        C154   1.271       .  A
Ni153       O156   1.945       .  S
Ni153       O158   1.922       .  S
C154        C271   1.473       .  S
C154        O164   1.275       .  A
O155       Ni171   1.933       .  S
O155        C161   1.283       .  A
O156        C161   1.282       .  A
O158        C160   1.269       .  A
O159       Ni170   1.932       .  S
C160        C205   1.469       .  S
C160        O166   1.266       .  A
C161        C249   1.499       .  S
H162        O163   0.969       .  S
O163       Ni171   1.930   1_556  S
O163       Ni165   1.914       .  S
O163       Ni170   1.905       .  S
O164       Ni165   1.934       .  S
Ni165       O169   1.923       .  S
Ni165       O167   1.943       .  S
O166       Ni171   1.913       .  S
C168        O169   1.273       .  A
C173        C174   1.415   1_455  A
C173        C178   1.406       .  A
C173        C535   1.477       .  S
C174        C175   1.401       .  A
C174        C437   1.490       .  S
C175        C176   1.406       .  A
C175        H180   1.084       .  S
C176        C177   1.418   1_655  A
C176        C459   1.478       .  S
C177        C178   1.405       .  A
C177        C525   1.495       .  S
C178        H179   1.084       .  S
C181        C182   1.420   1_455  A
C181        C186   1.403       .  A
C181        C261   1.505       .  S
C182        C183   1.409       .  A
C182        C371   1.478       .  S
C183        C184   1.405   1_655  A
C183        H188   1.084       .  S
C184        C185   1.422       .  A
C184        C349   1.502   1_455  S
C185        C186   1.414       .  A
C185        C283   1.485       .  S
C186        H187   1.084       .  S
C189        C190   1.428       .  A
C189        C194   1.401       .  A
C189        C327   1.500       .  S
C190        C191   1.419       .  A
C190        C217   1.493       .  S
C191        C192   1.403       .  A
C191        H196   1.082       .  S
C192        C193   1.418       .  A
C192        C239   1.512       .  S
C193        C194   1.402       .  A
C193        C293   1.470       .  S
C194        H195   1.084       .  S
C197        C198   1.421       .  A
C197        C202   1.411       .  A
C197        C381   1.479       .  S
C198        C199   1.405       .  A
C198        C491   1.502       .  S
C199        C200   1.405       .  A
C199        H204   1.084       .  S
C200        C201   1.414       .  A
C200        C469   1.473       .  S
C201        C202   1.406       .  A
C201        C415   1.497       .  S
C202        H203   1.084       .  S
C205        C206   1.398       .  A
C205        C210   1.401       .  A
C206        C207   1.388       .  A
C206        H219   1.084       .  S
C207        C208   1.410       .  A
C207        H220   1.078       .  S
C208        C214   1.422       .  A
C208        C209   1.422       .  A
C209        C211   1.401       .  A
C209        C210   1.411       .  A
C210        H221   1.084       .  S
C211        C212   1.395       .  A
C211        H222   1.084       .  S
C212        C213   1.402       .  A
C212        H223   1.084       .  S
C213        C214   1.419       .  A
C213        C218   1.404       .  A
C214        C215   1.412       .  A
C215        C216   1.390       .  A
C215        H224   1.077       .  S
C216        C217   1.401       .  A
C216        H225   1.082       .  S
C217        C218   1.407       .  A
C218        H226   1.082       .  S
C227        C228   1.408       .  A
C227        C232   1.405       .  A
C228        C229   1.405       .  A
C228        H241   1.083       .  S
C229        C230   1.414       .  A
C229        H242   1.078       .  S
C230        C236   1.442       .  A
C230        C231   1.425       .  A
C231        C233   1.399       .  A
C231        C232   1.413       .  A
C232        H243   1.084       .  S
C233        C234   1.390       .  A
C233        H244   1.084       .  S
C234        C235   1.400       .  A
C234        H245   1.084       .  S
C235        C236   1.420       .  A
C235        C240   1.406       .  A
C236        C237   1.421       .  A
C237        C238   1.411       .  A
C237        H246   1.078       .  S
C238        C239   1.404       .  A
C238        H247   1.083       .  S
C239        C240   1.406       .  A
C240        H248   1.082       .  S
C249        C250   1.402       .  A
C249        C254   1.410       .  A
C250        C251   1.404       .  A
C250        H263   1.083       .  S
C251        C252   1.418       .  A
C251        H264   1.078       .  S
C252        C258   1.438       .  A
C252        C253   1.421       .  A
C253        C255   1.403       .  A
C253        C254   1.413       .  A
C254        H265   1.084       .  S
C255        C256   1.395       .  A
C255        H266   1.084       .  S
C256        C257   1.401       .  A
C256        H267   1.084       .  S
C257        C258   1.425       .  A
C257        C262   1.417       .  A
C258        C259   1.413       .  A
C259        C260   1.398       .  A
C259        H268   1.077       .  S
C260        C261   1.403       .  A
C260        H269   1.082       .  S
C261        C262   1.405       .  A
C262        H270   1.084       .  S
C271        C272   1.399       .  A
C271        C276   1.404       .  A
C272        C273   1.385       .  A
C272        H285   1.084       .  S
C273        C274   1.409       .  A
C273        H286   1.078       .  S
C274        C280   1.422       .  A
C274        C275   1.423       .  A
C275        C277   1.402       .  A
C275        C276   1.413       .  A
C276        H287   1.084       .  S
C277        C278   1.397       .  A
C277        H288   1.084       .  S
C278        C279   1.403       .  A
C278        H289   1.084       .  S
C279        C280   1.419       .  A
C279        C284   1.409       .  A
C280        C281   1.413       .  A
C281        C282   1.389       .  A
C281        H290   1.078       .  S
C282        C283   1.398       .  A
C282        H291   1.083       .  S
C283        C284   1.406       .  A
C284        H292   1.083       .  S
C293        C294   1.396       .  A
C293        C298   1.398       .  A
C294        C295   1.389       .  A
C294        H307   1.084       .  S
C295        C296   1.412       .  A
C295        H308   1.074       .  S
C296        C302   1.421       .  A
C296        C297   1.423       .  A
C297        C299   1.398       .  A
C297        C298   1.400       .  A
C298        H309   1.085       .  S
C299        C300   1.388       .  A
C299        H310   1.084       .  S
C300        C301   1.399       .  A
C300        H311   1.084       .  S
C301        C302   1.421       .  A
C301        C306   1.398       .  A
C302        C303   1.416       .  A
C303        C304   1.391       .  A
C303        H312   1.077       .  S
C304        C305   1.394       .  A
C304        H313   1.084       .  S
C305        C306   1.398       .  A
C306        H314   1.085       .  S
C315        C316   1.403       .  A
C315        C320   1.407       .  A
C316        C317   1.406       .  A
C316        H329   1.083       .  S
C317        C318   1.418       .  A
C317        H330   1.078       .  S
C318        C324   1.439       .  A
C318        C319   1.422       .  A
C319        C321   1.401       .  A
C319        C320   1.409       .  A
C320        H331   1.085       .  S
C321        C322   1.391       .  A
C321        H332   1.084       .  S
C322        C323   1.399       .  A
C322        H333   1.084       .  S
C323        C324   1.424       .  A
C323        C328   1.410       .  A
C324        C325   1.417       .  A
C325        C326   1.404       .  A
C325        H334   1.078       .  S
C326        C327   1.402       .  A
C326        H335   1.083       .  S
C327        C328   1.404       .  A
C328        H336   1.085       .  S
C337        C338   1.406       .  A
C337        C342   1.409       .  A
C338        C339   1.415       .  A
C338        H351   1.083       .  S
C339        C340   1.422       .  A
C339        H352   1.079       .  S
C340        C346   1.444       .  A
C340        C341   1.420       .  A
C341        C343   1.400       .  A
C341        C342   1.405       .  A
C342        H353   1.084       .  S
C343        C344   1.388       .  A
C343        H354   1.084       .  S
C344        C345   1.397       .  A
C344        H355   1.084       .  S
C345        C346   1.424       .  A
C345        C350   1.407       .  A
C346        C347   1.416       .  A
C347        C348   1.410       .  A
C347        H356   1.075       .  S
C348        C349   1.402       .  A
C348        H357   1.081       .  S
C349        C350   1.402       .  A
C350        H358   1.084   1_655  S
C359        C360   1.398       .  A
C359        C364   1.398       .  A
C360        C361   1.392       .  A
C360        H373   1.084       .  S
C361        C362   1.412       .  A
C361        H374   1.078       .  S
C362        C368   1.422       .  A
C362        C363   1.422       .  A
C363        C365   1.399       .  A
C363        C364   1.403       .  A
C364        H375   1.085       .  S
C365        C366   1.390       .  A
C365        H376   1.084       .  S
C366        C367   1.401       .  A
C366        H377   1.081       .  S
C367        C368   1.420       .  A
C367        C372   1.403       .  A
C368        C369   1.414       .  A
C369        C370   1.393       .  A
C369        H378   1.078       .  S
C370        C371   1.397       .  A
C370        H379   1.083       .  S
C371        C372   1.399       .  A
C372        H380   1.080       .  S
C381        C382   1.397       .  A
C381        C386   1.398       .  A
C382        C383   1.400       .  A
C382        H395   1.083       .  S
C383        C384   1.418       .  A
C383        H396   1.075       .  S
C384        C390   1.430       .  A
C384        C385   1.421       .  A
C385        C387   1.397       .  A
C385        C386   1.397       .  A
C386        H397   1.085       .  S
C387        C388   1.386       .  A
C387        H398   1.084       .  S
C388        C389   1.398       .  A
C388        H399   1.084       .  S
C389        C390   1.424       .  A
C389        C394   1.402       .  A
C390        C391   1.414       .  A
C391        C392   1.397       .  A
C391        H400   1.078       .  S
C392        C393   1.405       .  A
C392        H401   1.083       .  S
C393        C394   1.400       .  A
C394        H402   1.084       .  S
C403        C404   1.402       .  A
C403        C408   1.404       .  A
C404        C405   1.413       .  A
C404        H417   1.083       .  S
C405        C406   1.422       .  A
C405        H418   1.078       .  S
C406        C412   1.441       .  A
C406        C407   1.421       .  A
C407        C409   1.399       .  A
C407        C408   1.404       .  A
C408        H419   1.085       .  S
C409        C410   1.388       .  A
C409        H420   1.084       .  S
C410        C411   1.398       .  A
C410        H421   1.084       .  S
C411        C412   1.426       .  A
C411        C416   1.409       .  A
C412        C413   1.417       .  A
C413        C414   1.406       .  A
C413        H422   1.078       .  S
C414        C415   1.402       .  A
C414        H423   1.081       .  S
C415        C416   1.399       .  A
C416        H424   1.085       .  S
C425        C426   1.403       .  A
C425        C430   1.404       .  A
C426        C427   1.413       .  A
C426        H439   1.083       .  S
C427        C428   1.422       .  A
C427        H440   1.079       .  S
C428        C434   1.439       .  A
C428        C429   1.420       .  A
C429        C431   1.399       .  A
C429        C430   1.400       .  A
C430        H441   1.085       .  S
C431        C432   1.385       .  A
C431        H442   1.084       .  S
C432        C433   1.396       .  A
C432        H443   1.084       .  S
C433        C434   1.427       .  A
C433        C438   1.405       .  A
C434        C435   1.416       .  A
C435        C436   1.405       .  A
C435        H444   1.079       .  S
C436        C437   1.400       .  A
C436        H445   1.079       .  S
C437        C438   1.396       .  A
C438        H446   1.085       .  S
C447        C448   1.401       .  A
C447        C452   1.403       .  A
C448        C449   1.397       .  A
C448        H461   1.083       .  S
C449        C450   1.415       .  A
C449        H462   1.077       .  S
C450        C456   1.428       .  A
C450        C451   1.421       .  A
C451        C453   1.398       .  A
C451        C452   1.400       .  A
C452        H463   1.085       .  S
C453        C454   1.387       .  A
C453        H464   1.084       .  S
C454        C455   1.396       .  A
C454        H465   1.084       .  S
C455        C456   1.424       .  A
C455        C460   1.402       .  A
C456        C457   1.414       .  A
C457        C458   1.394       .  A
C457        H466   1.077       .  S
C458        C459   1.400       .  A
C458        H467   1.083       .  S
C459        C460   1.394       .  A
C460        H468   1.085       .  S
C469        C470   1.396       .  A
C469        C474   1.395       .  A
C470        C471   1.394       .  A
C470        H483   1.084       .  S
C471        C472   1.416       .  A
C471        H484   1.077       .  S
C472        C478   1.427       .  A
C472        C473   1.422       .  A
C473        C475   1.398       .  A
C473        C474   1.400       .  A
C474        H485   1.081       .  S
C475        C476   1.388       .  A
C475        H486   1.082       .  S
C476        C477   1.399       .  A
C476        H487   1.084       .  S
C477        C478   1.423       .  A
C477        C482   1.404       .  A
C478        C479   1.413       .  A
C479        C480   1.393       .  A
C479        H488   1.077       .  S
C480        C481   1.400       .  A
C480        H489   1.084       .  S
C481        C482   1.401       .  A
C482        H490   1.085       .  S
C491        C492   1.401       .  A
C491        C496   1.409       .  A
C492        C493   1.398       .  A
C492        H505   1.083       .  S
C493        C494   1.416       .  A
C493        H506   1.077       .  S
C494        C500   1.436       .  A
C494        C495   1.421       .  A
C495        C497   1.401       .  A
C495        C496   1.414       .  A
C496        H507   1.084       .  S
C497        C498   1.396       .  A
C497        H508   1.081       .  S
C498        C499   1.401       .  A
C498        H509   1.084       .  S
C499        C500   1.425       .  A
C499        C504   1.418       .  A
C500        C501   1.412       .  A
C501        C502   1.394       .  A
C501        H510   1.077       .  S
C502        C503   1.403       .  A
C502        H511   1.084       .  S
C503        C504   1.404       .  A
C504        H512   1.084       .  S
C513        C514   1.400       .  A
C513        C518   1.402       .  A
C514        C515   1.407       .  A
C514        H527   1.083       .  S
C515        C516   1.420       .  A
C515        H528   1.078       .  S
C516        C522   1.437       .  A
C516        C517   1.422       .  A
C517        C519   1.399       .  A
C517        C518   1.403       .  A
C518        H529   1.085       .  S
C519        C520   1.388       .  A
C519        H530   1.084       .  S
C520        C521   1.398       .  A
C520        H531   1.084       .  S
C521        C522   1.425       .  A
C521        C526   1.406       .  A
C522        C523   1.416       .  A
C523        C524   1.403       .  A
C523        H532   1.078       .  S
C524        C525   1.404       .  A
C524        H533   1.084       .  S
C525        C526   1.399       .  A
C526        H534   1.085       .  S
C535        C536   1.399       .  A
C535        C540   1.395       .  A
C536        C537   1.393       .  A
C536        H549   1.083   1_455  S
C537        C538   1.414       .  A
C537        H550   1.077       .  S
C538        C544   1.427       .  A
C538        C539   1.423       .  A
C539        C541   1.398       .  A
C539        C540   1.403       .  A
C540        H551   1.082       .  S
C541        C542   1.388       .  A
C541        H552   1.082       .  S
C542        C543   1.399       .  A
C542        H553   1.084       .  S
C543        C544   1.421       .  A
C543        C548   1.401       .  A
C544        C545   1.415       .  A
C545        C546   1.396       .  A
C545        H554   1.077       .  S
C546        C547   1.402       .  A
C546        H555   1.083       .  S
C547        C548   1.403       .  A
C548        H556   1.084       .  S
N557        C562   1.357       .  A
N557        C561   1.356       .  A
N557        H589   1.030       .  S
N558        C565   1.353       .  A
N558        C566   1.355   1_556  A
N559        C564   1.356       .  A
N559        C563   1.357       .  A
N559        H590   1.037   1_556  S
N560        C567   1.356       .  A
N560        C568   1.354       .  A
C561        C569   1.388       .  A
C561        C577   1.425       .  A
C562        C578   1.426       .  A
C562        C570   1.388       .  A
C563        C571   1.389       .  A
C563        C580   1.421   1_556  A
C564        C579   1.415       .  A
C564        C572   1.386       .  A
C565        C577   1.424       .  A
C565        C573   1.389   1_556  A
C566        C580   1.417       .  A
C566        C574   1.385       .  A
C567        C575   1.387       .  A
C567        C578   1.424       .  A
C568        C576   1.387       .  A
C568        C579   1.421       .  A
C569        C570   1.377       .  A
C569        H581   1.082       .  S
C570        H582   1.082       .  S
C571        C572   1.372       .  A
C571        H583   1.082       .  S
C572        H584   1.082       .  S
C573        C574   1.375       .  A
C573        H585   1.082       .  S
C574        H586   1.082       .  S
C575        C576   1.376       .  A
C575        H587   1.082       .  S
C576        H588   1.082       .  S
C577        C635   1.484       .  S
C578        C724   1.495       .  S
C579        C687   1.483       .  S
C580        C661   1.487       .  S
N591        C595   1.356       .  A
N591        H623   1.038       .  S
N592        C599   1.353   1_455  A
N592        C600   1.354       .  A
N593        C597   1.355   1_545  A
N593        H624   1.036       .  S
N594        C601   1.355       .  A
N594        C602   1.354   1_655  A
C595        C603   1.388       .  A
C595        C611   1.418       .  A
C596        C612   1.418       .  A
C596        C604   1.387       .  A
C597        C605   1.387       .  A
C597        C614   1.418       .  A
C598        C613   1.419       .  A
C598        C606   1.388       .  A
C599        C611   1.419       .  A
C599        C607   1.388   1_554  A
C600        C614   1.417       .  A
C600        C608   1.386   1_554  A
C601        C609   1.386       .  A
C601        C612   1.418       .  A
C602        C610   1.388       .  A
C602        C613   1.421       .  A
C603        H615   1.081       .  S
C604        H616   1.082       .  S
C605        H617   1.082       .  S
C606        H618   1.082       .  S
C607        C608   1.375   1_655  A
C607        H619   1.082       .  S
C608        H620   1.082       .  S
C609        C610   1.379   1_655  A
C609        H621   1.083   1_554  S
C610        H622   1.082       .  S
C611        C698   1.485       .  S
C612        C672   1.485       .  S
C613        C646   1.482       .  S
C614        C713   1.487       .  S
O625       Ni631   1.923       .  S
O625        C646   1.270   1_556  A
O626       Ni649   1.919       .  S
O626        C635   1.273       .  A
O627       Ni631   1.885   1_554  S
O627       Ni649   1.894   1_554  S
O627       Ni643   1.909       .  S
O627        H650   0.965       .  S
C628       C1103   1.480       .  S
C628        O645   1.278       .  A
C628        O637   1.279       .  A
O629       Ni648   1.930       .  S
O629        C635   1.273   1_554  A
O630       Ni648   1.905       .  S
O630        C632   1.271       .  A
Ni631       O634   1.914       .  S
Ni631       O636   1.911       .  S
C632       C1059   1.490       .  S
C632        O642   1.280       .  A
O633       Ni649   1.926       .  S
O633        C639   1.282       .  A
O634        C639   1.278       .  A
O636        C638   1.270       .  A
O637       Ni648   1.921       .  S
C638       C1069   1.483       .  S
C638        O644   1.275       .  A
C639       C1037   1.472       .  S
H640        O641   0.966       .  S
O641       Ni649   1.911   1_554  S
O641       Ni643   1.901       .  S
O641       Ni648   1.885       .  S
O642       Ni643   1.956       .  S
Ni643       O647   1.926       .  S
Ni643       O645   1.917       .  S
O644       Ni649   1.944       .  S
C646        O647   1.275       .  A
O651       Ni657   1.928       .  S
O651        C672   1.270       .  A
O652       Ni675   1.939       .  S
O652        C661   1.278       .  A
O653       Ni657   1.884       .  S
O653       Ni675   1.906       .  S
O653       Ni669   1.915   1_554  S
O653        H676   0.966       .  S
C654       C1003   1.480       .  S
C654        O671   1.282       .  A
C654        O663   1.280       .  A
O655       Ni674   1.916       .  S
O655        C661   1.267   1_556  A
O656       Ni674   1.902       .  S
O656        C658   1.268       .  A
Ni657       O660   1.918       .  S
Ni657       O662   1.899       .  S
C658        C959   1.493       .  S
C658        O668   1.279       .  A
O659       Ni675   1.930       .  S
O659        C665   1.284       .  A
O660        C665   1.279       .  A
O662        C664   1.269       .  A
O663       Ni674   1.915       .  S
C664        C981   1.493       .  S
C664        O670   1.280       .  A
C665        C949   1.483       .  S
H666        O667   0.967   1_554  S
O667       Ni675   1.917   1_556  S
O667       Ni669   1.897       .  S
O667       Ni674   1.884       .  S
O668       Ni669   1.960       .  S
Ni669       O673   1.926       .  S
Ni669       O671   1.924       .  S
O670       Ni675   1.959       .  S
C672        O673   1.274   1_554  A
O677       Ni683   1.925       .  S
O677        C698   1.270   1_556  A
O678       Ni701   1.920       .  S
O678        C687   1.273       .  A
O679       Ni683   1.886       .  S
O679       Ni701   1.904       .  S
O679       Ni695   1.907   1_556  S
O679        H702   0.966       .  S
C680        C915   1.462       .  S
C680        O697   1.277       .  A
C680        O689   1.277       .  A
O681       Ni700   1.926       .  S
O681        C687   1.270   1_554  A
O682       Ni700   1.908       .  S
O682        C684   1.269       .  A
Ni683       O686   1.917       .  S
Ni683       O688   1.902       .  S
C684        C871   1.495       .  S
C684        O694   1.278       .  A
O685       Ni701   1.904       .  S
O685        C691   1.273       .  A
O686        C691   1.277       .  A
O688        C690   1.270       .  A
O689       Ni700   1.919       .  S
C690        C893   1.507       .  S
C690        O696   1.284       .  A
C691        C861   1.456       .  S
H692        O693   0.967       .  S
O693       Ni701   1.908   1_554  S
O693       Ni695   1.907       .  S
O693       Ni700   1.894       .  S
O694       Ni695   1.951       .  S
Ni695       O699   1.921       .  S
Ni695       O697   1.914       .  S
O696       Ni701   1.970       .  S
C698        O699   1.273       .  A
O703       Ni709   1.940       .  S
O703        C724   1.275   1_554  A
O704       Ni727   1.918       .  S
O704        C713   1.268       .  A
O705       Ni709   1.908       .  S
O705       Ni727   1.905       .  S
O705       Ni721   1.916   1_554  S
O705        H728   0.968       .  S
C706        C783   1.503       .  S
C706        O723   1.282       .  A
C706        O715   1.279       .  A
O707       Ni726   1.936       .  S
O707        C713   1.272   1_556  A
O708       Ni726   1.900       .  S
O708        C710   1.271       .  A
Ni709       O712   1.945       .  S
Ni709       O714   1.922       .  S
C710        C827   1.473       .  S
C710        O720   1.275       .  A
O711       Ni727   1.933       .  S
O711        C717   1.283       .  A
O712        C717   1.282       .  A
O714        C716   1.269       .  A
O715       Ni726   1.932       .  S
C716        C761   1.469       .  S
C716        O722   1.266       .  A
C717        C805   1.499       .  S
H718        O719   0.969       .  S
O719       Ni727   1.930   1_556  S
O719       Ni721   1.914       .  S
O719       Ni726   1.905       .  S
O720       Ni721   1.934       .  S
Ni721       O725   1.923       .  S
Ni721       O723   1.943       .  S
O722       Ni727   1.913       .  S
C724        O725   1.273       .  A
C729        C730   1.415   1_455  A
C729        C734   1.406       .  A
C729       C1091   1.477       .  S
C730        C731   1.401       .  A
C730        C993   1.490       .  S
C731        C732   1.406       .  A
C731        H736   1.084       .  S
C732        C733   1.418   1_655  A
C732       C1015   1.478       .  S
C733        C734   1.405       .  A
C733       C1081   1.495       .  S
C734        H735   1.084       .  S
C737        C738   1.420   1_455  A
C737        C742   1.403       .  A
C737        C817   1.505       .  S
C738        C739   1.409       .  A
C738        C927   1.478       .  S
C739        C740   1.405   1_655  A
C739        H744   1.084       .  S
C740        C741   1.422       .  A
C740        C905   1.502   1_455  S
C741        C742   1.414       .  A
C741        C839   1.485       .  S
C742        H743   1.084       .  S
C745        C746   1.428       .  A
C745        C750   1.401       .  A
C745        C883   1.500       .  S
C746        C747   1.419       .  A
C746        C773   1.493       .  S
C747        C748   1.403       .  A
C747        H752   1.082       .  S
C748        C749   1.418       .  A
C748        C795   1.512       .  S
C749        C750   1.402       .  A
C749        C849   1.470       .  S
C750        H751   1.084       .  S
C753        C754   1.421       .  A
C753        C758   1.411       .  A
C753        C937   1.479       .  S
C754        C755   1.405       .  A
C754       C1047   1.502       .  S
C755        C756   1.405       .  A
C755        H760   1.084       .  S
C756        C757   1.414       .  A
C756       C1025   1.473       .  S
C757        C758   1.406       .  A
C757        C971   1.497       .  S
C758        H759   1.084       .  S
C761        C762   1.398       .  A
C761        C766   1.401       .  A
C762        C763   1.388       .  A
C762        H775   1.084       .  S
C763        C764   1.410       .  A
C763        H776   1.078       .  S
C764        C770   1.422       .  A
C764        C765   1.422       .  A
C765        C767   1.401       .  A
C765        C766   1.411       .  A
C766        H777   1.084       .  S
C767        C768   1.395       .  A
C767        H778   1.084       .  S
C768        C769   1.402       .  A
C768        H779   1.084       .  S
C769        C770   1.419       .  A
C769        C774   1.404       .  A
C770        C771   1.412       .  A
C771        C772   1.390       .  A
C771        H780   1.077       .  S
C772        C773   1.401       .  A
C772        H781   1.082       .  S
C773        C774   1.407       .  A
C774        H782   1.082       .  S
C783        C784   1.408       .  A
C783        C788   1.405       .  A
C784        C785   1.405       .  A
C784        H797   1.083       .  S
C785        C786   1.414       .  A
C785        H798   1.078       .  S
C786        C792   1.442       .  A
C786        C787   1.425       .  A
C787        C789   1.399       .  A
C787        C788   1.413       .  A
C788        H799   1.084       .  S
C789        C790   1.390       .  A
C789        H800   1.084       .  S
C790        C791   1.400       .  A
C790        H801   1.084       .  S
C791        C792   1.420       .  A
C791        C796   1.406       .  A
C792        C793   1.421       .  A
C793        C794   1.411       .  A
C793        H802   1.078       .  S
C794        C795   1.404       .  A
C794        H803   1.083       .  S
C795        C796   1.406       .  A
C796        H804   1.082       .  S
C805        C806   1.402       .  A
C805        C810   1.410       .  A
C806        C807   1.404       .  A
C806        H819   1.083       .  S
C807        C808   1.418       .  A
C807        H820   1.078       .  S
C808        C814   1.438       .  A
C808        C809   1.421       .  A
C809        C811   1.403       .  A
C809        C810   1.413       .  A
C810        H821   1.084       .  S
C811        C812   1.395       .  A
C811        H822   1.084       .  S
C812        C813   1.401       .  A
C812        H823   1.084       .  S
C813        C814   1.425       .  A
C813        C818   1.417       .  A
C814        C815   1.413       .  A
C815        C816   1.398       .  A
C815        H824   1.077       .  S
C816        C817   1.403       .  A
C816        H825   1.082       .  S
C817        C818   1.405       .  A
C818        H826   1.084       .  S
C827        C828   1.399       .  A
C827        C832   1.404       .  A
C828        C829   1.385       .  A
C828        H841   1.084       .  S
C829        C830   1.409       .  A
C829        H842   1.078       .  S
C830        C836   1.422       .  A
C830        C831   1.423       .  A
C831        C833   1.402       .  A
C831        C832   1.413       .  A
C832        H843   1.084       .  S
C833        C834   1.397       .  A
C833        H844   1.084       .  S
C834        C835   1.403       .  A
C834        H845   1.084       .  S
C835        C836   1.419       .  A
C835        C840   1.409       .  A
C836        C837   1.413       .  A
C837        C838   1.389       .  A
C837        H846   1.078       .  S
C838        C839   1.398       .  A
C838        H847   1.083       .  S
C839        C840   1.406       .  A
C840        H848   1.083       .  S
C849        C850   1.396       .  A
C849        C854   1.398       .  A
C850        C851   1.389       .  A
C850        H863   1.084       .  S
C851        C852   1.412       .  A
C851        H864   1.074       .  S
C852        C858   1.421       .  A
C852        C853   1.423       .  A
C853        C855   1.398       .  A
C853        C854   1.400       .  A
C854        H865   1.085       .  S
C855        C856   1.388       .  A
C855        H866   1.084       .  S
C856        C857   1.399       .  A
C856        H867   1.084       .  S
C857        C858   1.421       .  A
C857        C862   1.398       .  A
C858        C859   1.416       .  A
C859        C860   1.391       .  A
C859        H868   1.077       .  S
C860        C861   1.394       .  A
C860        H869   1.084       .  S
C861        C862   1.398       .  A
C862        H870   1.085       .  S
C871        C872   1.403       .  A
C871        C876   1.407       .  A
C872        C873   1.406       .  A
C872        H885   1.083       .  S
C873        C874   1.418       .  A
C873        H886   1.078       .  S
C874        C880   1.439       .  A
C874        C875   1.422       .  A
C875        C877   1.401       .  A
C875        C876   1.409       .  A
C876        H887   1.085       .  S
C877        C878   1.391       .  A
C877        H888   1.084       .  S
C878        C879   1.399       .  A
C878        H889   1.084       .  S
C879        C880   1.424       .  A
C879        C884   1.410       .  A
C880        C881   1.417       .  A
C881        C882   1.404       .  A
C881        H890   1.078       .  S
C882        C883   1.402       .  A
C882        H891   1.083       .  S
C883        C884   1.404       .  A
C884        H892   1.085       .  S
C893        C894   1.406       .  A
C893        C898   1.409       .  A
C894        C895   1.415       .  A
C894        H907   1.083       .  S
C895        C896   1.422       .  A
C895        H908   1.079       .  S
C896        C902   1.444       .  A
C896        C897   1.420       .  A
C897        C899   1.400       .  A
C897        C898   1.405       .  A
C898        H909   1.084       .  S
C899        C900   1.388       .  A
C899        H910   1.084       .  S
C900        C901   1.397       .  A
C900        H911   1.084       .  S
C901        C902   1.424       .  A
C901        C906   1.407       .  A
C902        C903   1.416       .  A
C903        C904   1.410       .  A
C903        H912   1.075       .  S
C904        C905   1.402       .  A
C904        H913   1.081       .  S
C905        C906   1.402       .  A
C906        H914   1.084   1_655  S
C915        C916   1.398       .  A
C915        C920   1.398       .  A
C916        C917   1.392       .  A
C916        H929   1.084       .  S
C917        C918   1.412       .  A
C917        H930   1.078       .  S
C918        C924   1.422       .  A
C918        C919   1.422       .  A
C919        C921   1.399       .  A
C919        C920   1.403       .  A
C920        H931   1.085       .  S
C921        C922   1.390       .  A
C921        H932   1.084       .  S
C922        C923   1.401       .  A
C922        H933   1.081       .  S
C923        C924   1.420       .  A
C923        C928   1.403       .  A
C924        C925   1.414       .  A
C925        C926   1.393       .  A
C925        H934   1.078       .  S
C926        C927   1.397       .  A
C926        H935   1.083       .  S
C927        C928   1.399       .  A
C928        H936   1.080       .  S
C937        C938   1.397       .  A
C937        C942   1.398       .  A
C938        C939   1.400       .  A
C938        H951   1.083       .  S
C939        C940   1.418       .  A
C939        H952   1.075       .  S
C940        C946   1.430       .  A
C940        C941   1.421       .  A
C941        C943   1.397       .  A
C941        C942   1.397       .  A
C942        H953   1.085       .  S
C943        C944   1.386       .  A
C943        H954   1.084       .  S
C944        C945   1.398       .  A
C944        H955   1.084       .  S
C945        C946   1.424       .  A
C945        C950   1.402       .  A
C946        C947   1.414       .  A
C947        C948   1.397       .  A
C947        H956   1.078       .  S
C948        C949   1.405       .  A
C948        H957   1.083       .  S
C949        C950   1.400       .  A
C950        H958   1.084       .  S
C959        C960   1.402       .  A
C959        C964   1.404       .  A
C960        C961   1.413       .  A
C960        H973   1.083       .  S
C961        C962   1.422       .  A
C961        H974   1.078       .  S
C962        C968   1.441       .  A
C962        C963   1.421       .  A
C963        C965   1.399       .  A
C963        C964   1.404       .  A
C964        H975   1.085       .  S
C965        C966   1.388       .  A
C965        H976   1.084       .  S
C966        C967   1.398       .  A
C966        H977   1.084       .  S
C967        C968   1.426       .  A
C967        C972   1.409       .  A
C968        C969   1.417       .  A
C969        C970   1.406       .  A
C969        H978   1.078       .  S
C970        C971   1.402       .  A
C970        H979   1.081       .  S
C971        C972   1.399       .  A
C972        H980   1.085       .  S
C981        C982   1.403       .  A
C981        C986   1.404       .  A
C982        C983   1.413       .  A
C982        H995   1.083       .  S
C983        C984   1.422       .  A
C983        H996   1.079       .  S
C984        C990   1.439       .  A
C984        C985   1.420       .  A
C985        C987   1.399       .  A
C985        C986   1.400       .  A
C986        H997   1.085       .  S
C987        C988   1.385       .  A
C987        H998   1.084       .  S
C988        C989   1.396       .  A
C988        H999   1.084       .  S
C989        C990   1.427       .  A
C989        C994   1.405       .  A
C990        C991   1.416       .  A
C991        C992   1.405       .  A
C991       H1000   1.079       .  S
C992        C993   1.400       .  A
C992       H1001   1.079       .  S
C993        C994   1.396       .  A
C994       H1002   1.085       .  S
C1003      C1004   1.401       .  A
C1003      C1008   1.403       .  A
C1004      C1005   1.397       .  A
C1004      H1017   1.083       .  S
C1005      C1006   1.415       .  A
C1005      H1018   1.077       .  S
C1006      C1012   1.428       .  A
C1006      C1007   1.421       .  A
C1007      C1009   1.398       .  A
C1007      C1008   1.400       .  A
C1008      H1019   1.085       .  S
C1009      C1010   1.387       .  A
C1009      H1020   1.084       .  S
C1010      C1011   1.396       .  A
C1010      H1021   1.084       .  S
C1011      C1012   1.424       .  A
C1011      C1016   1.402       .  A
C1012      C1013   1.414       .  A
C1013      C1014   1.394       .  A
C1013      H1022   1.077       .  S
C1014      C1015   1.400       .  A
C1014      H1023   1.083       .  S
C1015      C1016   1.394       .  A
C1016      H1024   1.085       .  S
C1025      C1026   1.396       .  A
C1025      C1030   1.395       .  A
C1026      C1027   1.394       .  A
C1026      H1039   1.084       .  S
C1027      C1028   1.416       .  A
C1027      H1040   1.077       .  S
C1028      C1034   1.427       .  A
C1028      C1029   1.422       .  A
C1029      C1031   1.398       .  A
C1029      C1030   1.400       .  A
C1030      H1041   1.081       .  S
C1031      C1032   1.388       .  A
C1031      H1042   1.082       .  S
C1032      C1033   1.399       .  A
C1032      H1043   1.084       .  S
C1033      C1034   1.423       .  A
C1033      C1038   1.404       .  A
C1034      C1035   1.413       .  A
C1035      C1036   1.393       .  A
C1035      H1044   1.077       .  S
C1036      C1037   1.400       .  A
C1036      H1045   1.084       .  S
C1037      C1038   1.401       .  A
C1038      H1046   1.085       .  S
C1047      C1048   1.401       .  A
C1047      C1052   1.409       .  A
C1048      C1049   1.398       .  A
C1048      H1061   1.083       .  S
C1049      C1050   1.416       .  A
C1049      H1062   1.077       .  S
C1050      C1056   1.436       .  A
C1050      C1051   1.421       .  A
C1051      C1053   1.401       .  A
C1051      C1052   1.414       .  A
C1052      H1063   1.084       .  S
C1053      C1054   1.396       .  A
C1053      H1064   1.081       .  S
C1054      C1055   1.401       .  A
C1054      H1065   1.084       .  S
C1055      C1056   1.425       .  A
C1055      C1060   1.418       .  A
C1056      C1057   1.412       .  A
C1057      C1058   1.394       .  A
C1057      H1066   1.077       .  S
C1058      C1059   1.403       .  A
C1058      H1067   1.084       .  S
C1059      C1060   1.404       .  A
C1060      H1068   1.084       .  S
C1069      C1070   1.400       .  A
C1069      C1074   1.402       .  A
C1070      C1071   1.407       .  A
C1070      H1083   1.083       .  S
C1071      C1072   1.420       .  A
C1071      H1084   1.078       .  S
C1072      C1078   1.437       .  A
C1072      C1073   1.422       .  A
C1073      C1075   1.399       .  A
C1073      C1074   1.403       .  A
C1074      H1085   1.085       .  S
C1075      C1076   1.388       .  A
C1075      H1086   1.084       .  S
C1076      C1077   1.398       .  A
C1076      H1087   1.084       .  S
C1077      C1078   1.425       .  A
C1077      C1082   1.406       .  A
C1078      C1079   1.416       .  A
C1079      C1080   1.403       .  A
C1079      H1088   1.078       .  S
C1080      C1081   1.404       .  A
C1080      H1089   1.084       .  S
C1081      C1082   1.399       .  A
C1082      H1090   1.085       .  S
C1091      C1092   1.399       .  A
C1091      C1096   1.395       .  A
C1092      C1093   1.393       .  A
C1092      H1105   1.083   1_455  S
C1093      C1094   1.414       .  A
C1093      H1106   1.077       .  S
C1094      C1100   1.427       .  A
C1094      C1095   1.423       .  A
C1095      C1097   1.398       .  A
C1095      C1096   1.403       .  A
C1096      H1107   1.082       .  S
C1097      C1098   1.388       .  A
C1097      H1108   1.082       .  S
C1098      C1099   1.399       .  A
C1098      H1109   1.084       .  S
C1099      C1100   1.421       .  A
C1099      C1104   1.401       .  A
C1100      C1101   1.415       .  A
C1101      C1102   1.396       .  A
C1101      H1110   1.077       .  S
C1102      C1103   1.402       .  A
C1102      H1111   1.083       .  S
C1103      C1104   1.403       .  A
C1104      H1112   1.084       .  S
