geometry optimzed in LAMMPS
_audit_creation_date              2020-11-30 
_audit_creation_method            'lammps2cif' 
_symmetry_space_group_name_H-M    'P1' 
_symmetry_Int_Tables_number       1 
_symmetry_cell_setting            triclinic 
loop_ 
_symmetry_equiv_pos_as_xyz 
  x,y,z 
_cell_length_a                    25.99545523 
_cell_length_b                    25.90236003776405 
_cell_length_c                    25.967685337245214 
_cell_angle_alpha                 90.00177931347153 
_cell_angle_beta                  90.06145006070294 
_cell_angle_gamma                 89.98769071405763 
loop_ 
_atom_site_label 
_atom_site_type_symbol 
_atom_site_fract_x 
_atom_site_fract_y 
_atom_site_fract_z 
_atom_site_charge 
N1          N  0.01803722  0.50024637  0.57768783    -0.36300
N2          N  0.02197189  0.57752775  0.49668690    -0.56900
N3          N  0.01913839  0.49637014  0.41997914    -0.36300
N4          N  0.01105546  0.41917276  0.50118509    -0.56900
C5          C  0.01025974  0.54369433  0.60542151     0.27300
C6          C  0.00466639  0.45981909  0.60773958     0.27300
C7          C  0.00915072  0.53843750  0.39059888     0.27300
C8          C  0.00408796  0.45435015  0.39289387     0.27300
C9          C  0.03437588  0.60713379  0.53773185     0.35900
C10         C  0.03401253  0.60527839  0.45426631     0.35900
C11         C  0.01850061  0.38995271  0.54365801     0.35900
C12         C  0.01915875  0.38795205  0.46031401     0.35900
C13         C  0.99172815  0.53070576  0.65383888    -0.21600
C14         C  0.98841555  0.47767915  0.65536249    -0.21600
C15         C  0.98759885  0.52289072  0.34424969    -0.21600
C16         C  0.98458529  0.46981868  0.34562706    -0.21600
C17         C  0.05452355  0.65385108  0.52134508    -0.22600
C18         C  0.05431242  0.65267001  0.46841883    -0.22600
C19         C  0.03090582  0.33981663  0.52975437    -0.22600
C20         C  0.03148728  0.33858334  0.47688710    -0.22600
C21         C  0.02380849  0.59417843  0.58956771    -0.18000
C22         C  0.01129500  0.40726781  0.59472157    -0.18000
C23         C  0.01057350  0.40234556  0.40849590    -0.18000
C24         C  0.02260615  0.58998478  0.40320381    -0.18000
H25         H  0.98285727  0.55660829  0.68531061     0.14900
H26         H  0.97651176  0.45483413  0.68815756     0.14900
H27         H  0.97599641  0.54718093  0.31238112     0.14900
H28         H  0.97004836  0.44536077  0.31511229     0.14900
H29         H  0.06744909  0.68567224  0.54507040     0.13200
H30         H  0.06703425  0.68340108  0.44323405     0.13200
H31         H  0.03832038  0.30742624  0.55503579     0.13200
H32         H  0.03915415  0.30496835  0.45336021     0.13200
H33         H  0.03761953  0.49798302  0.54292176     0.26500
H34         H  0.04053950  0.49584750  0.45383285     0.26500
O35         O  0.99391110  0.14341568  0.08473298    -0.86200
O36         O  0.99464428  0.84898230  0.07799661    -0.86400
O37         O  0.90756915  0.99705486  0.14311090    -0.88000
O38         O  0.07578349  0.99650138  0.14687751    -0.86800
O39         O  0.13900992  0.99713546  0.08548541    -0.86400
O40         O  0.84733212  0.99801808  0.07862956    -0.87700
O41         O  0.99542066  0.91044397  0.14185805    -0.86200
O42         O  0.99322225  0.08004552  0.14639049    -0.85800
Zr43       Zr  0.99272075  0.99624062  0.10256772     2.84300
O44         O  0.04609756  0.94542262  0.05042733    -1.07800
O45         O  0.94209045  0.04951376  0.05013784    -1.08500
C46         C  0.99358826  0.12791442  0.13200900     1.06900
C47         C  0.99557340  0.86319401  0.12567569     1.06900
C48         C  0.86052049  0.99825785  0.12667905     1.09800
C49         C  0.12346054  0.99717743  0.13259271     1.07600
H50         H  0.92051693  0.92232223  0.06852372     0.33200
O51         O  0.94241628  0.94438026  0.04814709    -1.28700
H52         H  0.06681370  0.07057929  0.07522906     0.32900
O53         O  0.04594254  0.04942194  0.05284372    -1.30400
O54         O  0.00076748  0.85397348  0.91012296    -0.86200
O55         O  0.00076528  0.14605899  0.91736439    -0.87700
O56         O  0.85124391  0.91327516  0.99231694    -0.86300
O57         O  0.14236299  0.91499222  0.00294832    -0.86300
O58         O  0.14187978  0.08284337  0.00531136    -0.86000
O59         O  0.84932969  0.08157574  0.99415497    -0.85800
O60         O  0.91493851  0.99891190  0.85049995    -0.86200
O61         O  0.08373982  0.00204335  0.85466811    -0.85700
O62         O  0.85103780  0.99570399  0.91098388    -0.86700
O63         O  0.14396924  0.00015079  0.91872133    -0.85900
O64         O  0.91321430  0.85066313  0.98969224    -0.86300
O65         O  0.91151018  0.14423474  0.99691681    -0.86000
O66         O  0.07940786  0.14513910  0.00483203    -0.85700
O67         O  0.08025296  0.85224582  0.99995880    -0.86100
O68         O  0.00145098  0.91832623  0.84947672    -0.86400
O69         O  0.00138088  0.08533014  0.85311844    -0.87700
Zr70       Zr  0.99619018  0.89402788  0.99554084     2.83100
Zr71       Zr  0.99559254  0.10238667  0.00025121     2.83500
Zr72       Zr  0.89207565  0.99784982  0.99564706     2.84100
Zr73       Zr  0.09925797  0.99874409  0.00096271     2.83400
Zr74       Zr  0.99849963  0.00076433  0.89419185     2.84200
O75         O  0.04922607  0.05209930  0.94830588    -1.08300
O76         O  0.94535540  0.94720534  0.94347746    -1.07800
C77         C  0.00281508  0.87043331  0.86308163     1.06900
C78         C  0.00177465  0.13242141  0.86955562     1.09500
C79         C  0.86581226  0.86574301  0.98935557     1.07100
C80         C  0.12753756  0.86734111  0.00271956     1.07400
C81         C  0.12691103  0.13047545  0.00686387     1.07000
C82         C  0.86411827  0.12915977  0.99459743     1.06600
C83         C  0.86709883  0.99604686  0.86384082     1.07000
C84         C  0.13084445  0.00123356  0.87083508     1.06500
H85         H  0.92386413  0.07326771  0.92378677     0.33200
O86         O  0.94476124  0.05153922  0.94564679    -1.29400
H87         H  0.07188704  0.92638208  0.92502584     0.33200
O88         O  0.04954024  0.94728752  0.94610018    -1.30700
N89         N  0.49608849  0.99505419  0.57694339    -0.36300
N90         N  0.41434292  0.00010569  0.50041281    -0.56900
N91         N  0.49092213  0.99200233  0.41930227    -0.36300
N92         N  0.57282017  0.99270771  0.49596783    -0.56900
C93         C  0.45566014  0.00835012  0.60687070     0.27300
C94         C  0.53933252  0.00373877  0.60462928     0.27300
C95         C  0.44840982  0.00227379  0.39101375     0.27300
C96         C  0.53218067  0.99990851  0.38855657     0.27300
C97         C  0.38540395  0.99426343  0.54316167     0.35900
C98         C  0.38259962  0.99206438  0.45999345     0.35900
C99         C  0.60360772  0.98280484  0.53680857     0.35900
C100        C  0.60110888  0.98319571  0.45334128     0.35900
C101        C  0.47332444  0.02549923  0.65427080    -0.21600
C102        C  0.52620197  0.02270763  0.65282383    -0.21600
C103        C  0.46277122  0.01608017  0.34147804    -0.21600
C104        C  0.51561195  0.01457173  0.33992238    -0.21600
C105        C  0.33488109  0.98339871  0.52986659    -0.22600
C106        C  0.33310949  0.98199278  0.47711357    -0.22600
C107        C  0.65174928  0.96716428  0.52001966    -0.22600
C108        C  0.65024941  0.96771409  0.46712884    -0.22600
C109        C  0.40329863  0.00124569  0.59399064    -0.18000
C110        C  0.58995730  0.99121672  0.58888466    -0.18000
C111        C  0.58419862  0.99118818  0.40217448    -0.18000
C112        C  0.39692609  0.99692452  0.40778127    -0.18000
H113        H  0.45044417  0.03800177  0.68676680     0.14900
H114        H  0.55200333  0.03266749  0.68402225     0.14900
H115        H  0.43775876  0.02585972  0.30958463     0.14900
H116        H  0.53911187  0.02274895  0.30652689     0.14900
H117        H  0.30257719  0.97747207  0.55546376     0.13200
H118        H  0.29917304  0.97480590  0.45401980     0.13200
H119        H  0.68472509  0.95704113  0.54340786     0.13200
H120        H  0.68176410  0.95797110  0.44171147     0.13200
H121        H  0.49398951  0.97479527  0.54250637     0.26500
H122        H  0.49147750  0.97511037  0.45550569     0.26500
N123        N  0.49739188  0.42023202  0.01205152    -0.36300
N124        N  0.41836943  0.49925158  0.00815751    -0.56900
N125        N  0.49742415  0.57813234  0.00449344    -0.36300
N126        N  0.57623504  0.49871449  0.00512293    -0.56900
C127        C  0.45510083  0.39155110  0.00180192     0.27300
C128        C  0.53891562  0.39139892  0.99932227     0.27300
C129        C  0.45534061  0.60612080  0.99174402     0.27300
C130        C  0.53912890  0.60568767  0.98991391     0.27300
C131        C  0.38876722  0.45802281  0.01994783     0.35900
C132        C  0.38883024  0.54156931  0.01544752     0.35900
C133        C  0.60640197  0.45736268  0.01458221     0.35900
C134        C  0.60636904  0.54075172  0.01076739     0.35900
C135        C  0.46989277  0.34389601  0.98251987    -0.21600
C136        C  0.52284261  0.34382040  0.98090028    -0.21600
C137        C  0.47046418  0.65215852  0.96910769    -0.21600
C138        C  0.52343076  0.65187069  0.96792361    -0.21600
C139        C  0.34016159  0.47420963  0.03476619    -0.22600
C140        C  0.34016775  0.52721060  0.03179301    -0.22600
C141        C  0.65597680  0.47317192  0.02646564    -0.22600
C142        C  0.65598608  0.52612880  0.02390084    -0.22600
C143        C  0.40379972  0.40603016  0.01294605    -0.18000
C144        C  0.59084748  0.40566403  0.00746626    -0.18000
C145        C  0.59088681  0.59154241  0.99882767    -0.18000
C146        C  0.40391363  0.59247547  0.00304382    -0.18000
H147        H  0.44509957  0.31226846  0.97128544     0.14900
H148        H  0.54681043  0.31211211  0.96821724     0.14900
H149        H  0.44588713  0.68287838  0.95517292     0.14900
H150        H  0.54764507  0.68233432  0.95290386     0.14900
H151        H  0.30777715  0.45029295  0.04552309     0.13200
H152        H  0.30778990  0.55224171  0.03974564     0.13200
H153        H  0.68898464  0.44905905  0.03472015     0.13200
H154        H  0.68900909  0.55092820  0.02965847     0.13200
H155        H  0.49798943  0.45480126  0.03242930     0.26500
H156        H  0.49780838  0.54508534  0.02721824     0.26500
C157        C  0.70022446  0.67428222  0.94714167    -0.22200
C158        C  0.70901727  0.70699820  0.98919230     0.09800
C159        C  0.67828602  0.70265088  0.03372022     0.10200
C160        C  0.63973404  0.66487819  0.03556271    -0.17100
C161        C  0.63121815  0.63171941  0.99376587    -0.27500
C162        C  0.66150963  0.63662196  0.94880107     0.18500
C163        C  0.75027771  0.74607749  0.98593804     0.12500
C164        C  0.68633685  0.73785941  0.07920141    -0.11900
H165        H  0.61627732  0.66088295  0.06982273     0.12800
C166        C  0.65376741  0.60308547  0.90200298    -0.22700
H167        H  0.72370819  0.67818832  0.91287564     0.08400
C168        C  0.80083075  0.73503259  0.00197071     0.04800
C169        C  0.83771254  0.77455714  0.00183764    -0.19900
C170        C  0.82519745  0.82517666  0.98628080    -0.12200
C171        C  0.77441252  0.83540582  0.96837351     0.13500
C172        C  0.73780180  0.79559044  0.96858252    -0.22600
C173        C  0.81554670  0.68164660  0.01974464    -0.05700
H174        H  0.87632594  0.76587954  0.01490677     0.15000
C175        C  0.75805635  0.88752651  0.94811490    -0.15900
H176        H  0.69876982  0.80324266  0.95594591     0.09300
H177        H  0.68958357  0.58114177  0.89405822     0.07200
H178        H  0.64475309  0.62778975  0.86823335     0.08400
H179        H  0.62192356  0.57501747  0.90651445     0.07400
H180        H  0.68048089  0.77859927  0.06727159     0.02300
H181        H  0.72603630  0.73323645  0.09429780     0.02800
H182        H  0.65901797  0.72921779  0.11090405     0.06300
H183        H  0.85666466  0.67952624  0.03122615     0.05300
H184        H  0.80902665  0.65353949  0.98811992    -0.00500
H185        H  0.79182218  0.67044002  0.05345578     0.01000
H186        H  0.71832624  0.88672713  0.93235266     0.04600
H187        H  0.78410281  0.89979383  0.91652656     0.06600
H188        H  0.75840619  0.91649103  0.97959654     0.07500
C189        C  0.67568962  0.29037048  0.04122899    -0.22200
C190        C  0.70972143  0.29012267  0.99946471     0.09800
C191        C  0.70466122  0.32744227  0.96027568     0.10200
C192        C  0.66540940  0.36446178  0.96380630    -0.17100
C193        C  0.63124653  0.36493065  0.00569764    -0.27500
C194        C  0.63653631  0.32741719  0.04500937     0.18500
C195        C  0.74992947  0.24981868  0.99725766     0.12500
C196        C  0.74068575  0.32806504  0.91488329    -0.11900
H197        H  0.66126287  0.39328800  0.93382268     0.12800
C198        C  0.60216845  0.32562692  0.09168520    -0.22700
H199        H  0.67989134  0.26153068  0.07121873     0.08400
C200        C  0.79775720  0.25634300  0.02187359     0.04800
C201        C  0.83442259  0.21682773  0.01895412    -0.19900
C202        C  0.82393019  0.17002698  0.99359599    -0.12200
C203        C  0.77584998  0.16396513  0.96824069     0.13500
C204        C  0.73963566  0.20417283  0.97031782    -0.22600
C205        C  0.80991595  0.30480152  0.05156074    -0.05700
H206        H  0.87129267  0.22232574  0.03737075     0.15000
C207        C  0.76272249  0.11635282  0.93752950    -0.15900
H208        H  0.70282023  0.19996972  0.95111224     0.09300
H209        H  0.62596470  0.32884934  0.12707276     0.07200
H210        H  0.58123559  0.28826878  0.09244670     0.08400
H211        H  0.57343532  0.35717957  0.09260476     0.07400
H212        H  0.73769779  0.29104812  0.89353956     0.02300
H213        H  0.78087757  0.33323839  0.92842599     0.02800
H214        H  0.73151516  0.35996532  0.88780516     0.06300
H215        H  0.84929332  0.30377475  0.06813525     0.05300
H216        H  0.78217466  0.30934679  0.08371743    -0.00500
H217        H  0.80722909  0.33885003  0.02575662     0.01000
H218        H  0.72528238  0.12035906  0.91724101     0.04600
H219        H  0.75957459  0.08238006  0.96334608     0.06600
H220        H  0.79281113  0.10947651  0.90799517     0.07500
C221        C  0.29229033  0.67836505  0.96051791    -0.22200
C222        C  0.28740163  0.71101127  0.00335089     0.09800
C223        C  0.32081280  0.70469049  0.04575343     0.10200
C224        C  0.35900375  0.66638100  0.04404456    -0.17100
C225        C  0.36381319  0.63352835  0.00137743    -0.27500
C226        C  0.32994895  0.63946502  0.95906629     0.18500
C227        C  0.24693413  0.75149771  0.00320955     0.13300
C228        C  0.31599818  0.73831368  0.09281529    -0.11900
H229        H  0.38485351  0.66145171  0.07645669     0.12800
C230        C  0.33250217  0.60553204  0.91199161    -0.22700
H231        H  0.26640120  0.68316462  0.92809838     0.08400
C232        C  0.25411012  0.79896171  0.97758692     0.04800
C233        C  0.21461387  0.83597443  0.97828312    -0.19900
C234        C  0.16819876  0.82698143  0.00460350    -0.12200
C235        C  0.16212540  0.78014549  0.03232144     0.13500
C236        C  0.20131876  0.74277021  0.03055658    -0.22600
C237        C  0.30379976  0.81083353  0.95026226    -0.05700
H238        H  0.21989974  0.87202949  0.95775769     0.15000
C239        C  0.11580829  0.77014342  0.06586061    -0.15900
H240        H  0.19671447  0.70666097  0.05114824     0.09300
H241        H  0.33883290  0.62979681  0.87732897     0.07200
H242        H  0.29559331  0.58440987  0.90757875     0.08400
H243        H  0.36397102  0.57672022  0.91379366     0.07400
H244        H  0.27757466  0.73278625  0.11058586     0.02300
H245        H  0.32069620  0.77948134  0.08189826     0.02800
H246        H  0.34558139  0.72875267  0.12219335     0.06300
H247        H  0.30355506  0.85015588  0.93318651     0.05300
H248        H  0.31014801  0.78255364  0.91879700    -0.00500
H249        H  0.33629183  0.80859960  0.97797396     0.01000
H250        H  0.11980443  0.73365217  0.08798010     0.04600
H251        H  0.08060715  0.76670063  0.04195666     0.06600
H252        H  0.11116998  0.80210061  0.09401076     0.07500
C253        C  0.32312542  0.28965529  0.05382218    -0.22200
C254        C  0.28754766  0.28683978  0.01329773     0.09800
C255        C  0.29010144  0.32324296  0.97291212     0.10200
C256        C  0.32799670  0.36190218  0.97411798    -0.17100
C257        C  0.36360634  0.36490168  0.01468996    -0.27500
C258        C  0.36110845  0.32826367  0.05512532     0.18500
C259        C  0.24760745  0.24573844  0.01385558     0.12500
C260        C  0.25314100  0.32085771  0.92828591    -0.11900
H261        H  0.33021172  0.38977220  0.94305762     0.12800
C262        C  0.39740191  0.32909161  0.10043017    -0.22700
H263        H  0.32108325  0.26163799  0.08477476     0.08400
C264        C  0.25711149  0.19634311  0.99321003     0.04800
C265        C  0.21716897  0.15980904  0.99165921    -0.19900
C266        C  0.16771339  0.17106309  0.01081102    -0.12200
C267        C  0.15920617  0.22009345  0.03403579     0.13500
C268        C  0.19915021  0.25680428  0.03465952    -0.22600
C269        C  0.30943736  0.18230424  0.97265888    -0.05700
H270        H  0.22464980  0.12231720  0.97481681     0.15000
C271        C  0.10909583  0.23379032  0.05996988    -0.15900
H272        H  0.19258964  0.29458012  0.05139092     0.09300
H273        H  0.41998059  0.29270667  0.10122918     0.07200
H274        H  0.37495956  0.33220990  0.13665341     0.08400
H275        H  0.42472530  0.36188983  0.09944036     0.07400
H276        H  0.21309324  0.32518110  0.94243523     0.02300
H277        H  0.25702185  0.28315845  0.90831839     0.02800
H278        H  0.26060199  0.35196510  0.89981778     0.06300
H279        H  0.31048642  0.14206487  0.95789860     0.05300
H280        H  0.33850045  0.18575450  0.00383434    -0.00500
H281        H  0.31994946  0.20866457  0.94065652     0.01000
H282        H  0.11118754  0.27182825  0.07962217     0.04600
H283        H  0.09959676  0.20434250  0.08957055     0.06600
H284        H  0.07767813  0.23623432  0.03113700     0.07500
C285        C  0.67197294  0.95010464  0.70398696    -0.22200
C286        C  0.70886373  0.98958366  0.70506660     0.09800
C287        C  0.70736847  0.02874595  0.66727477     0.10200
C288        C  0.66835697  0.02811947  0.62983586    -0.17100
C289        C  0.63113677  0.98888460  0.62889415    -0.27500
C290        C  0.63328821  0.94901553  0.66618444     0.18500
C291        C  0.74847979  0.98965543  0.74637969     0.12500
C292        C  0.74654474  0.07156555  0.66691142    -0.11900
H293        H  0.66663116  0.05852063  0.60119686     0.12800
C294        C  0.59589665  0.90454066  0.66690343    -0.22700
H295        H  0.67348926  0.91983729  0.73279639     0.08400
C296        C  0.73725627  0.00731405  0.79645462     0.04800
C297        C  0.77653138  0.00876251  0.83367060    -0.19900
C298        C  0.82722867  0.99315852  0.82220240    -0.12200
C299        C  0.83781937  0.97401932  0.77190686     0.13500
C300        C  0.79829513  0.97273434  0.73486161    -0.22600
C301        C  0.68389403  0.02521784  0.81038177    -0.05700
H302        H  0.76744004  0.02257377  0.87193999     0.15000
C303        C  0.88994821  0.95336336  0.75682066    -0.15900
H304        H  0.80626966  0.95862246  0.69638199     0.09300
H305        H  0.57412311  0.90490580  0.70366404     0.07200
H306        H  0.61740269  0.86761797  0.66394819     0.08400
H307        H  0.56790220  0.90567028  0.63472952     0.07400
H308        H  0.78562866  0.05521688  0.66144631     0.02300
H309        H  0.74518751  0.09283682  0.70400550     0.02800
H310        H  0.73929813  0.09951660  0.63528620     0.06300
H311        H  0.68177686  0.03883538  0.85088327     0.05300
H312        H  0.65621712  0.99291816  0.80573428    -0.00500
H313        H  0.67229630  0.05759188  0.78485280     0.01000
H314        H  0.88972095  0.93673796  0.71739181     0.04600
H315        H  0.90174860  0.92224736  0.78379267     0.06600
H316        H  0.91880949  0.98491311  0.75706832     0.07500
C317        C  0.31635929  0.95473591  0.70197404    -0.22200
C318        C  0.28687269  0.99907494  0.71108235     0.09800
C319        C  0.29686842  0.04469764  0.68310680     0.10200
C320        C  0.33561039  0.04456377  0.64557896    -0.17100
C321        C  0.36485708  0.00008748  0.63612095    -0.27500
C322        C  0.35525156  0.95458489  0.66463388     0.18500
C323        C  0.24696726  0.99761527  0.75151571     0.12500
C324        C  0.26737238  0.09369598  0.69357880    -0.11900
H325        H  0.34315387  0.07917573  0.62337496     0.12800
C326        C  0.38462855  0.90513292  0.65601990    -0.22700
H327        H  0.30876636  0.91997763  0.72396768     0.08400
C328        C  0.19465364  0.99051273  0.73954457     0.04800
C329        C  0.15808709  0.99316960  0.77907359    -0.19900
C330        C  0.17247736  0.00048715  0.83098612    -0.12200
C331        C  0.22583884  0.00586515  0.84277125     0.13500
C332        C  0.26203195  0.00468050  0.80268349    -0.22600
C333        C  0.17750868  0.97872949  0.68530514    -0.05700
H334        H  0.11791527  0.98872066  0.76904897     0.15000
C335        C  0.24584847  0.01357291  0.89680170    -0.15900
H336        H  0.30259850  0.00957082  0.81115267     0.09300
H337        H  0.35747171  0.87411542  0.64452035     0.07200
H338        H  0.40417640  0.89363039  0.69228321     0.08400
H339        H  0.41428533  0.90836104  0.62557410     0.07400
H340        H  0.27304692  0.10547519  0.73429398     0.02300
H341        H  0.22573583  0.08772713  0.68652022     0.02800
H342        H  0.28042216  0.12584760  0.66850105     0.06300
H343        H  0.13511101  0.97402733  0.68271672     0.05300
H344        H  0.19566942  0.94223222  0.67219529    -0.00500
H345        H  0.18884469  0.01027502  0.65881690     0.01000
H346        H  0.28829590  0.01849529  0.89767548     0.04600
H347        H  0.23674791  0.97932931  0.92082832     0.06600
H348        H  0.22866496  0.04888149  0.91378485     0.07500
C349        C  0.24876025  0.01860555  0.20619345    -0.22200
C350        C  0.23811390  0.99284441  0.25226035     0.09800
C351        C  0.18938807  0.97036797  0.26002524     0.10200
C352        C  0.15276259  0.97249168  0.22036276    -0.17100
C353        C  0.16349968  0.99734689  0.17340484    -0.27500
C354        C  0.21200728  0.02182347  0.16677992     0.18500
C355        C  0.27805393  0.99243333  0.29270357     0.12500
C356        C  0.17585307  0.94490293  0.31037841    -0.11900
H357        H  0.11564252  0.95430891  0.22601360     0.12800
C358        C  0.22497422  0.05335519  0.11962031    -0.22700
H359        H  0.28603186  0.03676302  0.20138118     0.08400
C360        C  0.31341921  0.95139362  0.29738358     0.04800
C361        C  0.35137539  0.95369217  0.33572605    -0.19900
C362        C  0.35563837  0.99682935  0.36816557    -0.12200
C363        C  0.32130211  0.03878524  0.36203354     0.13500
C364        C  0.28239586  0.03562009  0.32483298    -0.22600
C365        C  0.31187049  0.90596148  0.26119044    -0.05700
H366        H  0.37834701  0.92206083  0.34009826     0.15000
C367        C  0.32537994  0.08786690  0.39294424    -0.15900
H368        H  0.25583856  0.06756925  0.32006868     0.09300
H369        H  0.22770166  0.02815245  0.08520615     0.07200
H370        H  0.26261651  0.07325942  0.12366484     0.08400
H371        H  0.19517061  0.08347317  0.11346543     0.07400
H372        H  0.17942370  0.97331771  0.34219796     0.02300
H373        H  0.20218336  0.91204488  0.31786439     0.02800
H374        H  0.13581261  0.92992799  0.31026944     0.06300
H375        H  0.34284817  0.87769883  0.26982392     0.05300
H376        H  0.31703943  0.91953908  0.22097066    -0.00500
H377        H  0.27438010  0.88579439  0.26439907     0.01000
H378        H  0.33057025  0.12107066  0.36639859     0.04600
H379        H  0.35825453  0.08788550  0.42011351     0.06600
H380        H  0.28949088  0.09365583  0.41535393     0.07500
C381        C  0.67220234  0.95108544  0.29159565    -0.22200
C382        C  0.69940856  0.99708514  0.28273181     0.09800
C383        C  0.68770611  0.04125454  0.31242003     0.10200
C384        C  0.65004719  0.03807490  0.35106560    -0.17100
C385        C  0.62345915  0.99191797  0.36042527    -0.27500
C386        C  0.63424877  0.94796008  0.32999970     0.18500
C387        C  0.74100520  0.99772574  0.24326734     0.12500
C388        C  0.71553001  0.09150448  0.30391239    -0.11900
H389        H  0.64122251  0.07174669  0.37422522     0.12800
C390        C  0.60677838  0.89725538  0.33737784    -0.22700
H391        H  0.68095778  0.91725639  0.26862581     0.08400
C392        C  0.78933188  0.97480347  0.25280647     0.04800
C393        C  0.82714891  0.97514317  0.21405899    -0.19900
C394        C  0.81860404  0.99932416  0.16620261    -0.12200
C395        C  0.77091771  0.02499944  0.15803103     0.13500
C396        C  0.73251884  0.02283273  0.19620878    -0.22600
C397        C  0.80150854  0.95143243  0.30454857    -0.05700
H398        H  0.86373280  0.95643921  0.22135180     0.15000
C399        C  0.76089174  0.05710379  0.11058248    -0.15900
H400        H  0.69576197  0.04149810  0.18965719     0.09300
H401        H  0.63521172  0.86672634  0.34693139     0.07200
H402        H  0.58662713  0.88655909  0.30119946     0.08400
H403        H  0.57786651  0.89839192  0.36869989     0.07400
H404        H  0.70811499  0.10571359  0.26428190     0.02300
H405        H  0.75751481  0.08575885  0.30929848     0.02800
H406        H  0.70259062  0.12177102  0.33129411     0.06300
H407        H  0.84146242  0.93632697  0.30618570     0.05300
H408        H  0.77484958  0.91901812  0.31273142    -0.00500
H409        H  0.79732753  0.98127163  0.33498663     0.01000
H410        H  0.72376572  0.07818311  0.11316330     0.04600
H411        H  0.75899383  0.03216116  0.07592590     0.06600
H412        H  0.79186712  0.08628094  0.10596325     0.07500
C413        C  0.05035290  0.32343769  0.70868580    -0.22200
C414        C  0.00747680  0.29096116  0.71287863     0.09800
C415        C  0.96521038  0.29773271  0.67938622     0.10200
C416        C  0.96736043  0.33624642  0.64147491    -0.17100
C417        C  0.01060903  0.36828251  0.63670288    -0.27500
C418        C  0.05253193  0.36208433  0.67096782     0.18500
C419        C  0.00740717  0.25035878  0.75295890     0.12500
C420        C  0.91819643  0.26395000  0.68329429    -0.11900
H421        H  0.93530270  0.34137699  0.61523536     0.12800
C422        C  0.10031896  0.39495254  0.66846997    -0.22700
H423        H  0.08248321  0.31835433  0.73487363     0.08400
C424        C  0.03563654  0.20421695  0.74706384     0.04800
C425        C  0.03348306  0.16659350  0.78592696    -0.19900
C426        C  0.00350287  0.17400566  0.83038895    -0.12200
C427        C  0.97470220  0.22021030  0.83572202     0.13500
C428        C  0.97756117  0.25794522  0.79712027    -0.22600
C429        C  0.06705506  0.19429800  0.69933046    -0.05700
H430        H  0.05533530  0.13120534  0.78157721     0.15000
C431        C  0.93896412  0.22923265  0.88059505    -0.15900
H432        H  0.95579366  0.29344233  0.80096530     0.09300
H433        H  0.13442221  0.36984410  0.66254433     0.07200
H434        H  0.10496452  0.41622301  0.70531095     0.08400
H435        H  0.09954022  0.42355848  0.63678334     0.07400
H436        H  0.89982111  0.26907507  0.72150889     0.02300
H437        H  0.92928968  0.22285128  0.67835859     0.02800
H438        H  0.88923404  0.27367937  0.65335425     0.06300
H439        H  0.08593469  0.15583593  0.70045367     0.05300
H440        H  0.09755416  0.22403081  0.69559503    -0.00500
H441        H  0.04177593  0.19570731  0.66485617     0.01000
H442        H  0.96125761  0.23273213  0.91686950     0.04600
H443        H  0.91117850  0.19680792  0.88370089     0.06600
H444        H  0.91649473  0.26542089  0.87598692     0.07500
C445        C  0.04173230  0.79979415  0.73999338    -0.22200
C446        C  0.01431430  0.75363616  0.74534308     0.09800
C447        C  0.98352612  0.74562512  0.78928078     0.10200
C448        C  0.98044371  0.78438920  0.82694469    -0.17100
C449        C  0.00726498  0.83119406  0.82156949    -0.27500
C450        C  0.03869547  0.83877384  0.77747982     0.18500
C451        C  0.01788399  0.71428454  0.70414383     0.12500
C452        C  0.95400101  0.69609024  0.79631806    -0.11900
H453        H  0.95653825  0.77828595  0.86057504     0.12800
C454        C  0.07058636  0.88684314  0.77027976    -0.22700
H455        H  0.06552395  0.80529870  0.70616777     0.08400
C456        C  0.98281856  0.71375683  0.66268258     0.04800
C457        C  0.98611860  0.67443142  0.62571315    -0.19900
C458        C  0.02422992  0.63614211  0.62881178    -0.12200
C459        C  0.06046580  0.63772596  0.66956919     0.13500
C460        C  0.05650470  0.67662776  0.70699550    -0.22600
C461        C  0.94192311  0.75465657  0.65759974    -0.05700
H462        H  0.95858637  0.67321090  0.59435087     0.15000
C463        C  0.10380835  0.59936923  0.67457537    -0.15900
H464        H  0.08369146  0.67759931  0.73868257     0.09300
H465        H  0.04518687  0.92086102  0.76502831     0.07200
H466        H  0.09556682  0.88428684  0.73568750     0.08400
H467        H  0.09587520  0.89269155  0.80428051     0.07400
H468        H  0.98111062  0.66297629  0.79722314     0.02300
H469        H  0.92657962  0.69075837  0.76396939     0.02800
H470        H  0.93172413  0.69603898  0.83278939     0.06300
H471        H  0.91761941  0.74847817  0.62294012     0.05300
H472        H  0.96026780  0.79321836  0.65431551    -0.00500
H473        H  0.91652971  0.75419571  0.69191657     0.01000
H474        H  0.14110046  0.62024783  0.67536444     0.04600
H475        H  0.10533950  0.57143742  0.64230579     0.06600
H476        H  0.09943628  0.57742599  0.71104221     0.07500
C477        C  0.04875201  0.66738342  0.28002573    -0.22200
C478        C  0.01270233  0.70736803  0.28473965     0.09800
C479        C  0.98057372  0.70912372  0.32847022     0.10200
C480        C  0.98511054  0.67071345  0.36644047    -0.17100
C481        C  0.02115687  0.63046680  0.36193335    -0.27500
C482        C  0.05375754  0.62916032  0.31816286     0.18500
C483        C  0.00917490  0.74704922  0.24347559     0.12500
C484        C  0.94154826  0.75160361  0.33503947    -0.11900
H485        H  0.96007993  0.67178900  0.39978376     0.12800
C486        C  0.09458219  0.58855750  0.31056150    -0.22700
H487        H  0.07347888  0.66622482  0.24643826     0.08400
C488        C  0.04430718  0.78853770  0.24073139     0.04800
C489        C  0.03863570  0.82576970  0.20186957    -0.19900
C490        C  0.99905017  0.82228847  0.16527220    -0.12200
C491        C  0.96407413  0.78050376  0.16765246     0.13500
C492        C  0.96951904  0.74344671  0.20691298    -0.22600
C493        C  0.08738978  0.79396979  0.27915677    -0.05700
H494        H  0.06555747  0.85767823  0.19974047     0.15000
C495        C  0.92020036  0.77569000  0.12996890    -0.15900
H496        H  0.94261044  0.71157814  0.20934065     0.09300
H497        H  0.13246646  0.60748871  0.30485857     0.07200
H498        H  0.09845747  0.56209386  0.34382562     0.08400
H499        H  0.08530260  0.56531607  0.27583589     0.07400
H500        H  0.91320409  0.75025830  0.30307071     0.02300
H501        H  0.96118896  0.78966617  0.33483603     0.02800
H502        H  0.92021074  0.74785582  0.37188363     0.06300
H503        H  0.11109143  0.82884969  0.27158074     0.05300
H504        H  0.11298208  0.75973394  0.27713543    -0.00500
H505        H  0.07127064  0.79721664  0.31859297     0.01000
H506        H  0.89526797  0.74203257  0.13888208     0.04600
H507        H  0.93546579  0.77035964  0.09046412     0.06600
H508        H  0.89602065  0.81101848  0.13124692     0.07500
C509        C  0.96875640  0.28453054  0.33043331    -0.22200
C510        C  0.00683285  0.28326862  0.29234818     0.09800
C511        C  0.04539659  0.32157171  0.29171278     0.10200
C512        C  0.04583369  0.35957651  0.33028512    -0.17100
C513        C  0.00766696  0.36102962  0.36853519    -0.27500
C514        C  0.96805913  0.32342880  0.36801696     0.18500
C515        C  0.00383381  0.24299363  0.25193468     0.12500
C516        C  0.08556480  0.32264227  0.24996969    -0.11900
H517        H  0.07584404  0.38863230  0.33046024     0.12800
C518        C  0.92378565  0.32383207  0.40546217    -0.22700
H519        H  0.93864585  0.25556017  0.33009066     0.08400
C520        C  0.02773884  0.19450012  0.25781844     0.04800
C521        C  0.02343447  0.15766801  0.21829022    -0.19900
C522        C  0.99543855  0.16808477  0.17303298    -0.12200
C523        C  0.97039622  0.21655708  0.16808787     0.13500
C524        C  0.97519532  0.25334474  0.20750903    -0.22600
C525        C  0.05757653  0.18169450  0.30588808    -0.05700
H526        H  0.04256497  0.12072592  0.22255873     0.15000
C527        C  0.93657015  0.22919501  0.12273722    -0.15900
H528        H  0.95623206  0.29046108  0.20389803     0.09300
H529        H  0.92465222  0.28802986  0.42896269     0.07200
H530        H  0.88695633  0.32528480  0.38381019     0.08400
H531        H  0.92431803  0.35744627  0.43179832     0.07400
H532        H  0.06665359  0.32699247  0.21185411     0.02300
H533        H  0.10797337  0.28617204  0.25043520     0.02800
H534        H  0.11277543  0.35530837  0.25506940     0.06300
H535        H  0.07377147  0.14203498  0.30444560     0.05300
H536        H  0.03189339  0.18431767  0.33992508    -0.00500
H537        H  0.08989717  0.20928253  0.31064881     0.01000
H538        H  0.91674187  0.26684568  0.12768474     0.04600
H539        H  0.95983058  0.23181781  0.08705154     0.06600
H540        H  0.90662400  0.19891515  0.11862078     0.07500
loop_ 
_geom_bond_atom_site_label_1 
_geom_bond_atom_site_label_2 
_geom_bond_distance 
_geom_bond_site_symmetry_2 
_ccdc_geom_bond_type 
N1            C6   1.352       .  A
N1            C5   1.351       .  A
N1           H33   1.039       .  S
N2            C9   1.352       .  A
N2           C10   1.352       .  A
N3            C8   1.353       .  A
N3            C7   1.355       .  A
N3           H34   1.040       .  S
N4           C11   1.351       .  A
N4           C12   1.351       .  A
C5           C13   1.388   1_455  A
C5           C21   1.416       .  A
C6           C22   1.413       .  A
C6           C14   1.387   1_455  A
C7           C15   1.387   1_455  A
C7           C24   1.419       .  A
C8           C23   1.417       .  A
C8           C16   1.387   1_455  A
C9           C21   1.414       .  A
C9           C17   1.386       .  A
C10          C24   1.415       .  A
C10          C18   1.386       .  A
C11          C19   1.386       .  A
C11          C22   1.412       .  A
C12          C20   1.387       .  A
C12          C23   1.414       .  A
C13          C14   1.377       .  A
C13          H25   1.082       .  S
C14          H26   1.083       .  S
C15          C16   1.377       .  A
C15          H27   1.082       .  S
C16          H28   1.082       .  S
C17          C18   1.375       .  A
C17          H29   1.082       .  S
C18          H30   1.082       .  S
C19          C20   1.373       .  A
C19          H31   1.082       .  S
C20          H32   1.082       .  S
C21         C458   1.490       .  S
C22         C417   1.486       .  S
C23         C513   1.493       .  S
C24         C481   1.500       .  S
O35         Zr71   2.438       .  S
O35          C46   1.292       .  A
O36         Zr70   2.439   1_554  S
O36          C47   1.292       .  A
O37         Zr43   2.452       .  S
O37          C48   1.295       .  A
O38         Zr43   2.446   1_455  S
O38          C49   1.294       .  A
O39         Zr73   2.425       .  S
O39          C49   1.289       .  A
O40         Zr72   2.450   1_554  S
O40          C48   1.294       .  A
O41         Zr43   2.446       .  S
O41          C47   1.294       .  A
O42         Zr43   2.451   1_545  S
O42          C46   1.295       .  A
Zr43         O44   2.344   1_655  S
Zr43         O45   2.342   1_565  S
Zr43         O53   2.342   1_665  S
Zr43         O51   2.347       .  S
O44         Zr70   2.342   1_454  S
O44         Zr73   2.339       .  S
O45         Zr71   2.344       .  S
O45         Zr72   2.341   1_544  S
C46         C522   1.490       .  S
C47         C490   1.479       .  S
C48         C394   1.498       .  S
C49         C353   1.485       .  S
H50          O51   0.965       .  S
O51         Zr70   2.350   1_554  S
O51         Zr72   2.342   1_554  S
H52          O53   0.965       .  S
O53         Zr71   2.336   1_455  S
O53         Zr73   2.337   1_545  S
O54         Zr70   2.452   1_455  S
O54          C77   1.295       .  A
O55         Zr71   2.435   1_456  S
O55          C78   1.291       .  A
O56         Zr72   2.436       .  S
O56          C79   1.290       .  A
O57         Zr73   2.442       .  S
O57          C80   1.293       .  A
O58         Zr73   2.447   1_545  S
O58          C81   1.294       .  A
O59         Zr72   2.437   1_545  S
O59          C82   1.291       .  A
O60         Zr74   2.450   1_565  S
O60          C83   1.293       .  A
O61         Zr74   2.443   1_455  S
O61          C84   1.294       .  A
O62         Zr72   2.443       .  S
O62          C83   1.294       .  A
O63         Zr73   2.433   1_546  S
O63          C84   1.289       .  A
O64         Zr70   2.437       .  S
O64          C79   1.293       .  A
O65         Zr71   2.441   1_556  S
O65          C82   1.294       .  A
O66         Zr71   2.447   1_455  S
O66          C81   1.293       .  A
O67         Zr70   2.441   1_455  S
O67          C80   1.292   1_556  A
O68         Zr74   2.432   1_465  S
O68          C77   1.290       .  A
O69         Zr74   2.438   1_455  S
O69          C78   1.292       .  A
Zr70         O76   2.338       .  S
Zr70         O88   2.341   1_655  S
Zr71         O75   2.337   1_654  S
Zr71         O86   2.343   1_554  S
Zr72         O76   2.340       .  S
Zr72         O86   2.345   1_565  S
Zr73         O75   2.338   1_564  S
Zr73         O88   2.339   1_554  S
Zr74         O75   2.341   1_655  S
Zr74         O76   2.340   1_545  S
Zr74         O88   2.343   1_645  S
Zr74         O86   2.339       .  S
C77         C449   1.486       .  S
C78         C426   1.482       .  S
C79         C170   1.492       .  S
C80         C234   1.487       .  S
C81         C266   1.497       .  S
C82         C202   1.487       .  S
C83         C298   1.499       .  S
C84         C330   1.498       .  S
H85          O86   0.966       .  S
H87          O88   0.965       .  S
N89          C94   1.353   1_565  A
N89          C93   1.352   1_565  A
N89         H121   1.038       .  S
N90          C97   1.350   1_545  A
N90          C98   1.351   1_545  A
N91          C96   1.353       .  A
N91          C95   1.353   1_565  A
N91         H122   1.037       .  S
N92          C99   1.352       .  A
N92         C100   1.352       .  A
C93         C101   1.386       .  A
C93         C109   1.413       .  A
C94         C110   1.416   1_545  A
C94         C102   1.387       .  A
C95         C103   1.387       .  A
C95         C112   1.415   1_545  A
C96         C111   1.415       .  A
C96         C104   1.387   1_565  A
C97         C109   1.411   1_565  A
C97         C105   1.387       .  A
C98         C112   1.412       .  A
C98         C106   1.386       .  A
C99         C107   1.386       .  A
C99         C110   1.415       .  A
C100        C108   1.386       .  A
C100        C111   1.414       .  A
C101        C102   1.377       .  A
C101        H113   1.082       .  S
C102        H114   1.082       .  S
C103        C104   1.375       .  A
C103        H115   1.082       .  S
C104        H116   1.082       .  S
C105        C106   1.371       .  A
C105        H117   1.083       .  S
C106        H118   1.082       .  S
C107        C108   1.374       .  A
C107        H119   1.082       .  S
C108        H120   1.082       .  S
C109        C321   1.483       .  S
C110        C289   1.492       .  S
C111        C385   1.490       .  S
C112        C362   1.486       .  S
N123        C128   1.354   1_554  A
N123        C127   1.353       .  A
N123        H155   1.040       .  S
N124        C131   1.352       .  A
N124        C132   1.352       .  A
N125        C130   1.353   1_554  A
N125        C129   1.353   1_554  A
N125        H156   1.040       .  S
N126        C133   1.350       .  A
N126        C134   1.349       .  A
C127        C135   1.387   1_554  A
C127        C143   1.415       .  A
C128        C144   1.415   1_556  A
C128        C136   1.386       .  A
C129        C137   1.387       .  A
C129        C146   1.414   1_556  A
C130        C145   1.413       .  A
C130        C138   1.387       .  A
C131        C143   1.414       .  A
C131        C139   1.386       .  A
C132        C146   1.413       .  A
C132        C140   1.386       .  A
C133        C141   1.387       .  A
C133        C144   1.411       .  A
C134        C142   1.386       .  A
C134        C145   1.410   1_554  A
C135        C136   1.377       .  A
C135        H147   1.082       .  S
C136        H148   1.082       .  S
C137        C138   1.377       .  A
C137        H149   1.082       .  S
C138        H150   1.082       .  S
C139        C140   1.375       .  A
C139        H151   1.082       .  S
C140        H152   1.082       .  S
C141        C142   1.373       .  A
C141        H153   1.082       .  S
C142        H154   1.083       .  S
C143        C257   1.493       .  S
C144        C193   1.489       .  S
C145        C161   1.483       .  S
C146        C225   1.490       .  S
C157        C158   1.401       .  A
C157        C162   1.402       .  A
C157        H167   1.084       .  S
C158        C159   1.411   1_556  A
C158        C163   1.477       .  S
C159        C160   1.402       .  A
C159        C164   1.507       .  S
C160        C161   1.402   1_554  A
C160        H165   1.084       .  S
C161        C162   1.415       .  A
C162        C166   1.507       .  S
C163        C168   1.407   1_556  A
C163        C172   1.397       .  A
C164        H180   1.110       .  S
C164        H181   1.110       .  S
C164        H182   1.111       .  S
C166        H177   1.110       .  S
C166        H178   1.110       .  S
C166        H179   1.108       .  S
C168        C169   1.403       .  A
C168        C173   1.507       .  S
C169        C170   1.410   1_554  A
C169        H174   1.083       .  S
C170        C171   1.424       .  A
C171        C172   1.404       .  A
C171        C175   1.510       .  S
C172        H176   1.084       .  S
C173        H183   1.111       .  S
C173        H184   1.110   1_554  S
C173        H185   1.110       .  S
C175        H186   1.111       .  S
C175        H187   1.111       .  S
C175        H188   1.110       .  S
C189        C190   1.400   1_554  A
C189        C194   1.402       .  A
C189        H199   1.085       .  S
C190        C191   1.410       .  A
C190        C195   1.478       .  S
C191        C192   1.403       .  A
C191        C196   1.506       .  S
C192        C193   1.405   1_556  A
C192        H197   1.084       .  S
C193        C194   1.416       .  A
C194        C198   1.507       .  S
C195        C200   1.408   1_556  A
C195        C204   1.399       .  A
C196        H212   1.110       .  S
C196        H213   1.110       .  S
C196        H214   1.111       .  S
C198        H209   1.110       .  S
C198        H210   1.110       .  S
C198        H211   1.107       .  S
C200        C201   1.401       .  A
C200        C205   1.506       .  S
C201        C202   1.406   1_554  A
C201        H206   1.080       .  S
C202        C203   1.421       .  A
C203        C204   1.405       .  A
C203        C207   1.508       .  S
C204        H208   1.084       .  S
C205        H215   1.110       .  S
C205        H216   1.110       .  S
C205        H217   1.110       .  S
C207        H218   1.111       .  S
C207        H219   1.109       .  S
C207        H220   1.110       .  S
C221        C222   1.403   1_556  A
C221        C226   1.405       .  A
C221        H231   1.084       .  S
C222        C223   1.411       .  A
C222        C227   1.485       .  S
C223        C224   1.404       .  A
C223        C228   1.506       .  S
C224        C225   1.403       .  A
C224        H229   1.084       .  S
C225        C226   1.416   1_554  A
C226        C230   1.507       .  S
C227        C232   1.410   1_554  A
C227        C236   1.401       .  A
C228        H244   1.110       .  S
C228        H245   1.110       .  S
C228        H246   1.111       .  S
C230        H241   1.110       .  S
C230        H242   1.110       .  S
C230        H243   1.108       .  S
C232        C233   1.405       .  A
C232        C237   1.506       .  S
C233        C234   1.407   1_556  A
C233        H238   1.084       .  S
C234        C235   1.420       .  A
C235        C236   1.406       .  A
C235        C239   1.509       .  S
C236        H240   1.084       .  S
C237        H247   1.111       .  S
C237        H248   1.110       .  S
C237        H249   1.111       .  S
C239        H250   1.111       .  S
C239        H251   1.109       .  S
C239        H252   1.111       .  S
C253        C254   1.402       .  A
C253        C258   1.406       .  A
C253        H263   1.084       .  S
C254        C255   1.412   1_554  A
C254        C259   1.487       .  S
C255        C256   1.405       .  A
C255        C260   1.506       .  S
C256        C257   1.404   1_556  A
C256        H261   1.084       .  S
C257        C258   1.417       .  A
C258        C262   1.507       .  S
C259        C264   1.409   1_554  A
C259        C268   1.401       .  A
C260        H276   1.110       .  S
C260        H277   1.110       .  S
C260        H278   1.111       .  S
C262        H273   1.110       .  S
C262        H274   1.110       .  S
C262        H275   1.108       .  S
C264        C265   1.406       .  A
C264        C269   1.506       .  S
C265        C266   1.409   1_556  A
C265        H270   1.083       .  S
C266        C267   1.423       .  A
C267        C268   1.408       .  A
C267        C271   1.509       .  S
C268        H272   1.084       .  S
C269        H279   1.111       .  S
C269        H280   1.110   1_556  S
C269        H281   1.110       .  S
C271        H282   1.111       .  S
C271        H283   1.111       .  S
C271        H284   1.109       .  S
C285        C286   1.402       .  A
C285        C290   1.405       .  A
C285        H295   1.084       .  S
C286        C287   1.412   1_565  A
C286        C291   1.486       .  S
C287        C288   1.404       .  A
C287        C292   1.506       .  S
C288        C289   1.404   1_545  A
C288        H293   1.084       .  S
C289        C290   1.417       .  A
C290        C294   1.508       .  S
C291        C296   1.409   1_565  A
C291        C300   1.400       .  A
C292        H308   1.110       .  S
C292        H309   1.110       .  S
C292        H310   1.111       .  S
C294        H305   1.110       .  S
C294        H306   1.110       .  S
C294        H307   1.108       .  S
C296        C297   1.406       .  A
C296        C301   1.507       .  S
C297        C298   1.411   1_545  A
C297        H302   1.083       .  S
C298        C299   1.424       .  A
C299        C300   1.407       .  A
C299        C303   1.509       .  S
C300        H304   1.084       .  S
C301        H311   1.111       .  S
C301        H312   1.110   1_545  S
C301        H313   1.110       .  S
C303        H314   1.111       .  S
C303        H315   1.111       .  S
C303        H316   1.110       .  S
C317        C318   1.401       .  A
C317        C322   1.402       .  A
C317        H327   1.084       .  S
C318        C319   1.412   1_565  A
C318        C323   1.477       .  S
C319        C320   1.402       .  A
C319        C324   1.508       .  S
C320        C321   1.402       .  A
C320        H325   1.084       .  S
C321        C322   1.414   1_545  A
C322        C326   1.508       .  S
C323        C328   1.407       .  A
C323        C332   1.397   1_565  A
C324        H340   1.110       .  S
C324        H341   1.108       .  S
C324        H342   1.111       .  S
C326        H337   1.110       .  S
C326        H338   1.110       .  S
C326        H339   1.108       .  S
C328        C329   1.401       .  A
C328        C333   1.508       .  S
C329        C330   1.411   1_565  A
C329        H334   1.082       .  S
C330        C331   1.427       .  A
C331        C332   1.404       .  A
C331        C335   1.509       .  S
C332        H336   1.084       .  S
C333        H343   1.111       .  S
C333        H344   1.110       .  S
C333        H345   1.108   1_565  S
C335        H346   1.111       .  S
C335        H347   1.110   1_545  S
C335        H348   1.109       .  S
C349        C350   1.398   1_545  A
C349        C354   1.402       .  A
C349        H359   1.084       .  S
C350        C351   1.409       .  A
C350        C355   1.476       .  S
C351        C352   1.403       .  A
C351        C356   1.507       .  S
C352        C353   1.407       .  A
C352        H357   1.084       .  S
C353        C354   1.422   1_565  A
C354        C358   1.510       .  S
C355        C360   1.410       .  A
C355        C364   1.400   1_565  A
C356        H372   1.110       .  S
C356        H373   1.109       .  S
C356        H374   1.111       .  S
C358        H369   1.109       .  S
C358        H370   1.111       .  S
C358        H371   1.111       .  S
C360        C361   1.402       .  A
C360        C365   1.507       .  S
C361        C362   1.404       .  A
C361        H366   1.084       .  S
C362        C363   1.415   1_565  A
C363        C364   1.400       .  A
C363        C367   1.507       .  S
C364        H368   1.085       .  S
C365        H375   1.111       .  S
C365        H376   1.110       .  S
C365        H377   1.109       .  S
C367        H378   1.111       .  S
C367        H379   1.108       .  S
C367        H380   1.110       .  S
C381        C382   1.405       .  A
C381        C386   1.406       .  A
C381        H391   1.084       .  S
C382        C383   1.413   1_565  A
C382        C387   1.491       .  S
C383        C384   1.405       .  A
C383        C388   1.506       .  S
C384        C385   1.402   1_545  A
C384        H389   1.084       .  S
C385        C386   1.414       .  A
C386        C390   1.507       .  S
C387        C392   1.411       .  A
C387        C396   1.402   1_565  A
C388        H404   1.110       .  S
C388        H405   1.110       .  S
C388        H406   1.111       .  S
C390        H401   1.110       .  S
C390        H402   1.110       .  S
C390        H403   1.108       .  S
C392        C393   1.407       .  A
C392        C397   1.507       .  S
C393        C394   1.409       .  A
C393        H398   1.084       .  S
C394        C395   1.422   1_565  A
C395        C396   1.409       .  A
C395        C399   1.509       .  S
C396        H400   1.084       .  S
C397        H407   1.111       .  S
C397        H408   1.109       .  S
C397        H409   1.111       .  S
C399        H410   1.111       .  S
C399        H411   1.109       .  S
C399        H412   1.111       .  S
C413        C414   1.401       .  A
C413        C418   1.402       .  A
C413        H423   1.085       .  S
C414        C415   1.411   1_455  A
C414        C419   1.480       .  S
C415        C416   1.403       .  A
C415        C420   1.507       .  S
C416        C417   1.403   1_655  A
C416        H421   1.084       .  S
C417        C418   1.415       .  A
C418        C422   1.508       .  S
C419        C424   1.411       .  A
C419        C428   1.399   1_455  A
C420        H436   1.110       .  S
C420        H437   1.110       .  S
C420        H438   1.111       .  S
C422        H433   1.110       .  S
C422        H434   1.110       .  S
C422        H435   1.107       .  S
C424        C425   1.404       .  A
C424        C429   1.507       .  S
C425        C426   1.407       .  A
C425        H430   1.084       .  S
C426        C427   1.418   1_455  A
C427        C428   1.402       .  A
C427        C431   1.509       .  S
C428        H432   1.084       .  S
C429        H439   1.111       .  S
C429        H440   1.110       .  S
C429        H441   1.111       .  S
C431        H442   1.109       .  S
C431        H443   1.111       .  S
C431        H444   1.111       .  S
C445        C446   1.399       .  A
C445        C450   1.405       .  A
C445        H455   1.084       .  S
C446        C447   1.410   1_455  A
C446        C451   1.481       .  S
C447        C448   1.404       .  A
C447        C452   1.506       .  S
C448        C449   1.406   1_655  A
C448        H453   1.084       .  S
C449        C450   1.421       .  A
C450        C454   1.508       .  S
C451        C456   1.410   1_455  A
C451        C460   1.402       .  A
C452        H468   1.110       .  S
C452        H469   1.110       .  S
C452        H470   1.111       .  S
C454        H465   1.109       .  S
C454        H466   1.111       .  S
C454        H467   1.111       .  S
C456        C457   1.402       .  A
C456        C461   1.506       .  S
C457        C458   1.404   1_655  A
C457        H462   1.084       .  S
C458        C459   1.417       .  A
C459        C460   1.404       .  A
C459        C463   1.508       .  S
C460        H464   1.084       .  S
C461        H471   1.111       .  S
C461        H472   1.110       .  S
C461        H473   1.110       .  S
C463        H474   1.110       .  S
C463        H475   1.108       .  S
C463        H476   1.110       .  S
C477        C478   1.402       .  A
C477        C482   1.406       .  A
C477        H487   1.084       .  S
C478        C479   1.411   1_455  A
C478        C483   1.488       .  S
C479        C480   1.406       .  A
C479        C484   1.506       .  S
C480        C481   1.407   1_655  A
C480        H485   1.084       .  S
C481        C482   1.419       .  A
C482        C486   1.507       .  S
C483        C488   1.412       .  A
C483        C492   1.404   1_455  A
C484        H500   1.110       .  S
C484        H501   1.110       .  S
C484        H502   1.111       .  S
C486        H497   1.110       .  S
C486        H498   1.107       .  S
C486        H499   1.111       .  S
C488        C489   1.404       .  A
C488        C493   1.506       .  S
C489        C490   1.403   1_455  A
C489        H494   1.085       .  S
C490        C491   1.415       .  A
C491        C492   1.407       .  A
C491        C495   1.507       .  S
C492        H496   1.084       .  S
C493        H503   1.111       .  S
C493        H504   1.110       .  S
C493        H505   1.110       .  S
C495        H506   1.111       .  S
C495        H507   1.109       .  S
C495        H508   1.111       .  S
C509        C510   1.400   1_655  A
C509        C514   1.403       .  A
C509        H519   1.084       .  S
C510        C511   1.411       .  A
C510        C515   1.482       .  S
C511        C512   1.404       .  A
C511        C516   1.506       .  S
C512        C513   1.405       .  A
C512        H517   1.084       .  S
C513        C514   1.417   1_455  A
C514        C518   1.508       .  S
C515        C520   1.410       .  A
C515        C524   1.398   1_455  A
C516        H532   1.110       .  S
C516        H533   1.110       .  S
C516        H534   1.111       .  S
C518        H529   1.110       .  S
C518        H530   1.110       .  S
C518        H531   1.107       .  S
C520        C521   1.406       .  A
C520        C525   1.506       .  S
C521        C522   1.408   1_455  A
C521        H526   1.084       .  S
C522        C523   1.420       .  A
C523        C524   1.404       .  A
C523        C527   1.505       .  S
C524        H528   1.084       .  S
C525        H535   1.111       .  S
C525        H536   1.110       .  S
C525        H537   1.110       .  S
C527        H538   1.110       .  S
C527        H539   1.109       .  S
C527        H540   1.110       .  S
