geometry optimzed in LAMMPS
_audit_creation_date              2020-11-30 
_audit_creation_method            'lammps2cif' 
_symmetry_space_group_name_H-M    'P1' 
_symmetry_Int_Tables_number       1 
_symmetry_cell_setting            triclinic 
loop_ 
_symmetry_equiv_pos_as_xyz 
  x,y,z 
_cell_length_a                    61.09844844260692 
_cell_length_b                    61.15945746128644 
_cell_length_c                    69.41887617261037 
_cell_angle_alpha                 90.1017061682565 
_cell_angle_beta                  89.83315757312549 
_cell_angle_gamma                 122.79691820245421 
loop_ 
_atom_site_label 
_atom_site_type_symbol 
_atom_site_fract_x 
_atom_site_fract_y 
_atom_site_fract_z 
_atom_site_charge 
N1          N  0.23520876  0.16973443  0.09784864    -0.27310
N2          N  0.24831409  0.17933302  0.11408097    -0.35170
C3          C  0.23881244  0.16049091  0.12743857     0.01030
C4          C  0.21870649  0.13780698  0.11936672     0.07060
C5          C  0.21676094  0.14432978  0.10058468    -0.06040
H6          H  0.24682804  0.16287566  0.14173416     0.07730
H7          H  0.20385742  0.13130916  0.08948599     0.08930
Cu8        Cu  0.28128142  0.21616647  0.11709874     0.44170
Cu9        Cu  0.24584258  0.19145231  0.07239247     0.41990
Cu10       Cu  0.30749226  0.25583822  0.07558387     0.43880
N11         N  0.31811056  0.24959316  0.11652327    -0.34690
N12         N  0.32806476  0.26443783  0.10109103    -0.28950
C13         C  0.35331380  0.28266012  0.10436213    -0.05050
C14         C  0.35947881  0.27883510  0.12270374     0.07170
C15         C  0.33668512  0.25780483  0.13001771     0.00960
H16         H  0.36652707  0.29660857  0.09379123     0.08620
H17         H  0.33413310  0.24826751  0.14371121     0.07690
N18         N  0.28547422  0.24054073  0.05080285    -0.36140
N19         N  0.26347984  0.21747651  0.04941950    -0.28320
C20         C  0.25553629  0.21361286  0.03094295    -0.03560
C21         C  0.27349292  0.23513106  0.02016784     0.05050
C22         C  0.29204945  0.25183487  0.03336093     0.03140
H23         H  0.23831496  0.19608348  0.02565440     0.08250
H24         H  0.30919189  0.27088715  0.03062616     0.07080
N25         N  0.30703340  0.31521763  0.86002576    -0.27310
N26         N  0.29369556  0.30553729  0.84389149    -0.35170
C27         C  0.30276964  0.32439919  0.83056445     0.01030
C28         C  0.32283579  0.34717034  0.83856354     0.07060
C29         C  0.32520316  0.34068333  0.85725498    -0.06040
H30         H  0.29450832  0.32194699  0.81635345     0.07730
H31         H  0.33822453  0.35375720  0.86828266     0.08930
Cu32       Cu  0.26099094  0.26850659  0.84104835     0.44170
Cu33       Cu  0.29712471  0.29356136  0.88548250     0.41990
Cu34       Cu  0.23585202  0.22890801  0.88268185     0.43880
N35         N  0.22428170  0.23495998  0.84198400    -0.34690
N36         N  0.21469290  0.22016073  0.85746834    -0.28950
C37         C  0.18935639  0.20194831  0.85450357    -0.05050
C38         C  0.18276327  0.20573731  0.83630730     0.07170
C39         C  0.20538995  0.22672154  0.82875795     0.00960
H40         H  0.17638314  0.18806407  0.86520293     0.08620
H41         H  0.20760947  0.23625190  0.81511421     0.07690
N42         N  0.25820589  0.24441473  0.90727873    -0.36140
N43         N  0.28007408  0.26759866  0.90855597    -0.28320
C44         C  0.28818212  0.27162073  0.92700028    -0.03560
C45         C  0.27044139  0.25008079  0.93785358     0.05050
C46         C  0.25187315  0.23319850  0.92474403     0.03140
H47         H  0.30531248  0.28928561  0.93222643     0.08250
H48         H  0.23483732  0.21410373  0.92756446     0.07080
O49         O  0.29800359  0.25945927  0.50588328    -0.72960
O50         O  0.22939790  0.23368578  0.48003257    -0.73940
O51         O  0.24915411  0.21132766  0.50475067    -0.62560
O52         O  0.27802777  0.28159271  0.48120461    -0.70970
O53         O  0.29103601  0.26969086  0.45559864    -0.70520
O54         O  0.26223189  0.19945932  0.47916635    -0.61780
O55         O  0.24224334  0.22155702  0.45447391    -0.74290
O56         O  0.31082679  0.24736552  0.48029135    -0.73070
Cu57       Cu  0.26318044  0.24692822  0.49386414     1.04560
Cu58       Cu  0.27704785  0.23410510  0.46649032     1.04330
C59         C  0.31516149  0.25727222  0.49715164     0.93240
C60         C  0.22508640  0.22377236  0.46317263     0.92380
C61         C  0.25136925  0.19441214  0.49571452     0.84520
C62         C  0.28885293  0.28662156  0.46464349     0.90790
O63         O  0.13794806  0.43864551  0.83851090    -0.72960
O64         O  0.06793483  0.41019383  0.81412079    -0.73940
O65         O  0.08960301  0.38992401  0.83915622    -0.62560
O66         O  0.11598466  0.45878481  0.81382281    -0.70970
O67         O  0.12873454  0.44647329  0.78830934    -0.70520
O68         O  0.10200673  0.37735234  0.81359704    -0.61780
O69         O  0.08049719  0.39770306  0.78860156    -0.74290
O70         O  0.15009765  0.42582723  0.81294189    -0.73070
Cu71       Cu  0.10240739  0.42481615  0.82729872     1.04560
Cu72       Cu  0.11574710  0.41137602  0.79997682     1.04330
C73         C  0.15500528  0.43655303  0.82950527     0.93240
C74         C  0.06333634  0.39974943  0.79743082     0.92380
C75         C  0.09189153  0.37287346  0.83042029     0.84520
C76         C  0.12643359  0.46348383  0.79713587     0.90790
N77         N  0.24139789  0.52900025  0.09741670    -0.27310
N78         N  0.25697033  0.53735835  0.11254731    -0.35170
C79         C  0.24867344  0.54790771  0.12527208     0.01030
C80         C  0.22679501  0.54604375  0.11780910     0.07060
C81         C  0.22264887  0.53391960  0.10014240    -0.06040
H82         H  0.25772565  0.05601788  0.13904881     0.07730
H83         H  0.20712933  0.52892522  0.09006959     0.08930
Cu84       Cu  0.28874918  0.53409955  0.11538488     0.44170
Cu85       Cu  0.24703880  0.51196017  0.07375275     0.41990
Cu86       Cu  0.30360341  0.50625725  0.07600518     0.43880
N87         N  0.32103305  0.53141558  0.11474251    -0.34690
N88         N  0.32673786  0.52137287  0.10020024    -0.28950
C89         C  0.35007520  0.52470250  0.10338764    -0.05050
C90         C  0.35936278  0.53740393  0.12081325     0.07170
C91         C  0.34043773  0.54124840  0.12765033     0.00960
H92         H  0.35990373  0.51912728  0.09345727     0.08620
H93         H  0.34120371  0.05144476  0.14063988     0.07690
N94         N  0.28028765  0.49747924  0.05204918    -0.36140
N95         N  0.25986702  0.49954474  0.05116535    -0.28320
C96         C  0.25122020  0.49545455  0.03292271    -0.03560
C97         C  0.26702906  0.49069205  0.02176164     0.05050
C98         C  0.28518696  0.49207143  0.03441818     0.03140
H99         H  0.23582440  0.49777346  0.02797401     0.08250
H100        H  0.30159880  0.49057281  0.03094393     0.07080
N101        N  0.29806971  0.45369434  0.86167748    -0.27310
N102        N  0.28295297  0.44608707  0.84630327    -0.35170
C103        C  0.29181100  0.43641541  0.83326608     0.01030
C104        C  0.31358390  0.43809407  0.84078231     0.07060
C105        C  0.31707939  0.44918569  0.85880147    -0.06040
H106        H  0.28317390  0.42896707  0.81927158     0.07730
H107        H  0.33226605  0.45365181  0.86905388     0.08930
Cu108      Cu  0.25097262  0.44910264  0.84362367     0.44170
Cu109      Cu  0.29138130  0.46896402  0.88593463     0.41990
Cu110      Cu  0.23472815  0.47440280  0.88402599     0.43880
N111        N  0.21861498  0.45171663  0.84444070    -0.34690
N112        N  0.21250183  0.46092523  0.85931151    -0.28950
C113        C  0.18925233  0.45777312  0.85609180    -0.05050
C114        C  0.18041301  0.44603408  0.83831399     0.07170
C115        C  0.19952888  0.44257839  0.83129740     0.00960
H116        H  0.17910400  0.46266778  0.86626598     0.08620
H117        H  0.19906532  0.43303498  0.81802425     0.07690
N118        N  0.25713896  0.48156338  0.90827851    -0.36140
N119        N  0.27763093  0.47960805  0.90901899    -0.28320
C120        C  0.28585115  0.98276537  0.92733674    -0.03560
C121        C  0.26969851  0.98682438  0.93869592     0.05050
C122        C  0.25175433  0.98596300  0.92608578     0.03140
H123        H  0.30132961  0.98048084  0.93212309     0.08250
H124        H  0.23529656  0.98734511  0.92965307     0.07080
N125        N  0.96388274  0.25321336  0.09709274    -0.27310
N126        N  0.95642882  0.23780025  0.11230000    -0.35170
C127        C  0.44745103  0.24666962  0.12590852     0.01030
C128        C  0.44944892  0.26882936  0.11897769     0.07060
C129        C  0.95996284  0.27248105  0.10067109    -0.06040
H130        H  0.44030577  0.23779459  0.13989603     0.07730
H131        H  0.96450916  0.28800754  0.09072899     0.08930
Cu132      Cu  0.95911516  0.20566819  0.11401001     0.44170
Cu133      Cu  0.97878047  0.24672616  0.07234292     0.41990
Cu134      Cu  0.98338275  0.18929608  0.07270379     0.43880
N135        N  0.96165317  0.17341025  0.11283717    -0.34690
N136        N  0.97026407  0.16700382  0.09773832    -0.28950
C137        C  0.96754676  0.14399209  0.10126350    -0.05050
C138        C  0.45674265  0.13570346  0.11944825     0.07170
C139        C  0.45335333  0.15485418  0.12634919     0.00960
H140        H  0.97228295  0.13369460  0.09112263     0.08620
H141        H  0.44456439  0.15485715  0.13990322     0.07690
N142        N  0.99321731  0.21419813  0.04926681    -0.36140
N143        N  0.99154443  0.23487428  0.04918222    -0.28320
C144        C  0.99859194  0.24611430  0.03171057    -0.03560
C145        C  0.00487789  0.23181601  0.02009290     0.05050
C146        C  0.00136621  0.21178745  0.03182435     0.03140
H147        H  0.99852407  0.26314572  0.02765284     0.08250
H148        H  0.00459409  0.19657737  0.02810885     0.07080
N149        N  0.07856668  0.23191978  0.86295679    -0.27310
N150        N  0.08570337  0.24716267  0.84766986    -0.35170
C151        C  0.09469629  0.23833499  0.83404404     0.01030
C152        C  0.09302995  0.21636858  0.84104456     0.07060
C153        C  0.08270395  0.21279255  0.85941265    -0.06040
H154        H  0.10152376  0.24704171  0.81997137     0.07730
H155        H  0.07834789  0.19736126  0.86939303     0.08930
Cu156      Cu  0.08235058  0.27885832  0.84581678     0.44170
Cu157      Cu  0.06361614  0.23835909  0.88769698     0.41990
Cu158      Cu  0.05801265  0.29520488  0.88709120     0.43880
N159        N  0.07915910  0.31070797  0.84678349    -0.34690
N160        N  0.07054013  0.31713081  0.86186719    -0.28950
C161        C  0.07289284  0.33994261  0.85819477    -0.05050
C162        C  0.08346849  0.34807443  0.83993198     0.07170
C163        C  0.08709856  0.32904319  0.83313773     0.00960
H164        H  0.06812643  0.35025146  0.86830056     0.08620
H165        H  0.09587323  0.32901726  0.81958273     0.07690
N166        N  0.04870685  0.27060602  0.91066034    -0.36140
N167        N  0.05069697  0.25011953  0.91081475    -0.28320
C168        C  0.04382390  0.23897774  0.92832454    -0.03560
C169        C  0.03733251  0.25314869  0.93989347     0.05050
C170        C  0.04054245  0.27300040  0.92810318     0.03140
H171        H  0.04412683  0.22209214  0.93243740     0.08250
H172        H  0.03706734  0.28805454  0.93177979     0.07080
O173        O  0.45028455  0.09369528  0.12005421    -0.72960
O174        O  0.42371686  0.02470082  0.14527551    -0.73940
O175        O  0.40188100  0.04492281  0.12058756    -0.62560
O176        O  0.47182382  0.07326362  0.14507555    -0.70970
O177        O  0.45916323  0.08556218  0.17064864    -0.70520
O178        O  0.38975188  0.05784731  0.14610604    -0.61780
O179        O  0.41083135  0.03695211  0.17074492    -0.74290
O180        O  0.43794859  0.10624802  0.14566225    -0.73070
Cu181      Cu  0.43739059  0.05872586  0.13184697     1.04560
Cu182      Cu  0.42400943  0.07211966  0.15917084     1.04330
C183        C  0.44810005  0.11077730  0.12885114     0.93240
C184        C  0.41315459  0.51995490  0.16192426     0.92380
C185        C  0.38482860  0.04704207  0.12957092     0.84520
C186        C  0.47634037  0.08353341  0.16182532     0.90790
N187        N  0.16533739  0.43957118  0.43489777    -0.27310
N188        N  0.15590873  0.42551540  0.45076572    -0.35170
C189        C  0.17509690  0.43386101  0.46374763     0.01030
C190        C  0.19777789  0.95415083  0.45572152     0.07060
C191        C  0.19090788  0.95742740  0.43744196    -0.06040
H192        H  0.17293558  0.42494398  0.47766070     0.07730
H193        H  0.20377870  0.97083877  0.42647637     0.08930
Cu194      Cu  0.11875685  0.39278785  0.45319154     0.44170
Cu195      Cu  0.14339827  0.43084682  0.40987407     0.41990
Cu196      Cu  0.07934213  0.36898182  0.41094003     0.43880
N197        N  0.08527136  0.35609997  0.45140207    -0.34690
N198        N  0.07065980  0.34700888  0.43579793    -0.28950
C199        C  0.55260288  0.32152283  0.43830409    -0.05050
C200        C  0.55630450  0.31432696  0.45630334     0.07170
C201        C  0.07705263  0.33674262  0.46422272     0.00960
H202        H  0.53890691  0.30888421  0.42740878     0.08620
H203        H  0.08648607  0.33853230  0.47782902     0.07690
N204        N  0.09533717  0.39264651  0.38691449    -0.36140
N205        N  0.11838974  0.41476059  0.38640847    -0.28320
C206        C  0.12361273  0.42350048  0.36814779    -0.03560
C207        C  0.10288223  0.40610779  0.35657817     0.05050
C208        C  0.08534713  0.38680983  0.36904631     0.03140
H209        H  0.14160612  0.44082573  0.36356202     0.08250
H210        H  0.06735893  0.36893690  0.36531943     0.07080
N211        N  0.03602131  0.36842354  0.19462434    -0.27310
N212        N  0.04550516  0.38206595  0.17858650    -0.35170
C213        C  0.02650319  0.37303541  0.16539781     0.01030
C214        C  0.50386993  0.35272824  0.17344815     0.07060
C215        C  0.51057608  0.35013612  0.19198043    -0.06040
H216        H  0.02870223  0.38158750  0.15132551     0.07730
H217        H  0.49763617  0.33699912  0.20304056     0.08930
Cu218      Cu  0.08223733  0.41534928  0.17607916     0.44170
Cu219      Cu  0.05767270  0.37848723  0.21989032     0.41990
Cu220      Cu  0.12105915  0.44137965  0.21833297     0.43880
N221        N  0.11507933  0.45252334  0.17737489    -0.34690
N222        N  0.12955381  0.46243134  0.19297596    -0.28950
C223        C  0.14743388  0.98784875  0.18993458    -0.05050
C224        C  0.14373817  0.99414558  0.17158738     0.07170
C225        C  0.12317170  0.47127231  0.16403395     0.00960
H226        H  0.16113018  0.00101970  0.20062009     0.08620
H227        H  0.11392636  0.46870404  0.15021310     0.07690
N228        N  0.10525700  0.41824738  0.24266830    -0.36140
N229        N  0.08246776  0.39584194  0.24333093    -0.28320
C230        C  0.07733417  0.38752488  0.26169437    -0.03560
C231        C  0.09784995  0.40547503  0.27316560     0.05050
C232        C  0.11517206  0.42467021  0.26054656     0.03140
H233        H  0.05957536  0.37003385  0.26639827     0.08250
H234        H  0.13298116  0.44278991  0.26415400     0.07080
N235        N  0.08406145  0.21000940  0.42837015    -0.27310
N236        N  0.09943045  0.21787046  0.44361519    -0.35170
C237        C  0.09052698  0.22725300  0.45685528     0.01030
C238        C  0.06839726  0.22513237  0.44969265     0.07060
C239        C  0.06478825  0.21409862  0.43158899    -0.06040
H240        H  0.09921285  0.23451513  0.47086462     0.07730
H241        H  0.04913068  0.20904761  0.42163947     0.08930
Cu242      Cu  0.13128129  0.21473298  0.44634279     0.44170
Cu243      Cu  0.09032191  0.19381147  0.40423605     0.41990
Cu244      Cu  0.14683613  0.18759971  0.40694792     0.43880
N245        N  0.16307063  0.21124987  0.44635240    -0.34690
N246        N  0.16914703  0.20153119  0.43180384    -0.28950
C247        C  0.19186511  0.20378294  0.43570474    -0.05050
C248        C  0.20032624  0.21541047  0.45359949     0.07170
C249        C  0.18156485  0.21978467  0.45993906     0.00960
H250        H  0.20183323  0.19810685  0.42600527     0.08620
H251        H  0.18182402  0.22939521  0.47311782     0.07690
N252        N  0.12276106  0.17752912  0.38309838    -0.36140
N253        N  0.10244506  0.17977209  0.38204289    -0.28320
C254        C  0.09208326  0.17263376  0.36430502    -0.03560
C255        C  0.10666324  0.16576710  0.35358249     0.05050
C256        C  0.12583109  0.16895055  0.36609234     0.03140
H257        H  0.07559579  0.17318363  0.35940779     0.08250
H258        H  0.14101748  0.16537620  0.36316673     0.07080
N259        N  0.11750939  0.09808497  0.19612862    -0.27310
N260        N  0.10289031  0.09147551  0.18052531    -0.35170
C261        C  0.11230961  0.08299664  0.16697943     0.01030
C262        C  0.13402538  0.08446325  0.17432524     0.07060
C263        C  0.13684997  0.09413732  0.19283794    -0.06040
H264        H  0.10407049  0.07649651  0.15275790     0.07730
H265        H  0.15178097  0.09796865  0.20314440     0.08930
Cu266      Cu  0.07097283  0.09441734  0.17798787     0.44170
Cu267      Cu  0.10974621  0.11166794  0.22106855     0.41990
Cu268      Cu  0.05286824  0.11709526  0.21892064     0.43880
N269        N  0.03879325  0.09713812  0.17836109    -0.34690
N270        N  0.03186788  0.10532842  0.19340533    -0.28950
C271        C  0.00898446  0.10272606  0.18958216    -0.05050
C272        C  0.00127447  0.09240116  0.17125389     0.07170
C273        C  0.02065384  0.08918460  0.16455712     0.00960
H274        H  0.99825435  0.10697847  0.19968505     0.08620
H275        H  0.02098457  0.08057155  0.15101901     0.07690
N276        N  0.07576703  0.12511202  0.24322205    -0.36140
N277        N  0.09625903  0.12314247  0.24404907    -0.28320
C278        C  0.10604972  0.12906774  0.26199869    -0.03560
C279        C  0.09093311  0.13488845  0.27309810     0.05050
C280        C  0.07200420  0.13230646  0.26060060     0.03140
H281        H  0.12269784  0.12867187  0.26669396     0.08250
H282        H  0.05669078  0.13562827  0.26373086     0.07080
O283        O  0.17195399  0.08292168  0.17199506    -0.72960
O284        O  0.21770571  0.06534979  0.14363055    -0.73940
O285        O  0.21285872  0.10913625  0.14473576    -0.62560
O286        O  0.17678442  0.03929419  0.17069233    -0.70970
O287        O  0.14854378  0.52283288  0.14653770    -0.70520
O288        O  0.18501357  0.09268914  0.12034922    -0.61780
O289        O  0.18945921  0.04869243  0.11947490    -0.74290
O290        O  0.14389571  0.06679313  0.14771142    -0.73070
Cu291      Cu  0.19584717  0.07480883  0.15857257     1.04560
Cu292      Cu  0.16569295  0.05717211  0.13268871     1.04330
C293        C  0.15071710  0.07768668  0.16424806     0.93240
C294        C  0.21063572  0.05388017  0.12732560     0.92380
C295        C  0.20477151  0.11198484  0.12854124     0.84520
C296        C  0.15701560  0.01997339  0.16253852     0.90790
O297        O  0.01076289  0.25585783  0.50688956    -0.72960
O298        O  0.05807529  0.24174275  0.47673210    -0.73940
O299        O  0.05178436  0.28449843  0.48022459    -0.62560
O300        O  0.01702073  0.21312818  0.50341306    -0.70970
O301        O  0.48908962  0.19756016  0.47904204    -0.70520
O302        O  0.02391489  0.26896959  0.45581583    -0.61780
O303        O  0.03011938  0.22617533  0.45237913    -0.74290
O304        O  0.48281255  0.24034626  0.48253344    -0.73070
Cu305      Cu  0.03542174  0.24937320  0.49264166     1.04560
Cu306      Cu  0.50546948  0.23270160  0.46661058     1.04330
C307        C  0.98940391  0.25055679  0.49929950     0.93240
C308        C  0.05146505  0.23146559  0.45998999     0.92380
C309        C  0.04331246  0.28803275  0.46449110     0.84520
C310        C  0.49761953  0.19404954  0.49475671     0.90790
N311        N  0.45662822  0.27152119  0.53120452    -0.27310
N312        N  0.44123582  0.26373049  0.51597531    -0.35170
C313        C  0.45021251  0.25456047  0.50261519     0.01030
C314        C  0.97241978  0.25675429  0.50968342     0.07060
C315        C  0.97599050  0.26760190  0.52785636    -0.06040
H316        H  0.44151118  0.24737689  0.48859922     0.07730
H317        H  0.99167882  0.27263567  0.53777025     0.08930
Cu318      Cu  0.40925598  0.26669625  0.51347452     0.44170
Cu319      Cu  0.45031865  0.28748916  0.55546873     0.41990
Cu320      Cu  0.39405820  0.29412275  0.55293963     0.43880
N321        N  0.37736587  0.27001873  0.51369848    -0.34690
N322        N  0.37140667  0.27981710  0.52826358    -0.28950
C323        C  0.34860492  0.27745443  0.52448717    -0.05050
C324        C  0.33997414  0.26567748  0.50665520     0.07170
C325        C  0.35871687  0.26132838  0.50022586     0.00960
H326        H  0.33872702  0.28320574  0.53421355     0.08620
H327        H  0.35836673  0.25166712  0.48704913     0.07690
N328        N  0.41854843  0.30463103  0.57657694    -0.36140
N329        N  0.43858070  0.30192861  0.57764901    -0.28320
C330        C  0.44899272  0.30899014  0.59537797    -0.03560
C331        C  0.43498570  0.31666537  0.60596602     0.05050
C332        C  0.41581428  0.31358375  0.59352793     0.03140
H333        H  0.46535606  0.30822255  0.60027742     0.08250
H334        H  0.40020682  0.31643478  0.59675644     0.07080
N335        N  0.42305989  0.38635219  0.76235350    -0.27310
N336        N  0.43782250  0.39325638  0.77789614    -0.35170
C337        C  0.42878146  0.40236221  0.79124257     0.01030
C338        C  0.40715337  0.40100975  0.78384578     0.07060
C339        C  0.40399100  0.39074823  0.76549640    -0.06040
H340        H  0.43710845  0.40903732  0.80542153     0.07730
H341        H  0.38889090  0.38662519  0.75526235     0.08930
Cu342      Cu  0.46918734  0.38952234  0.78079225     0.44170
Cu343      Cu  0.43002071  0.37129919  0.73783990     0.41990
Cu344      Cu  0.48572100  0.36394057  0.74094295     0.43880
N345        N  0.50090380  0.38608439  0.78084668    -0.34690
N346        N  0.50734737  0.37692208  0.76614466    -0.28950
C347        C  0.03016998  0.37943079  0.77004785    -0.05050
C348        C  0.03831380  0.39068250  0.78808347     0.07170
C349        C  0.51926313  0.39454463  0.79452225     0.00960
H350        H  0.04055096  0.37444323  0.76018232     0.08620
H351        H  0.51933367  0.40396669  0.80775049     0.07690
N352        N  0.46236650  0.35484343  0.71677743    -0.36140
N353        N  0.44249616  0.35777403  0.71550637    -0.28320
C354        C  0.43272383  0.35145025  0.69755676    -0.03560
C355        C  0.44698680  0.34402207  0.68702889     0.05050
C356        C  0.46564858  0.34649619  0.69973603     0.03140
H357        H  0.41653500  0.35241735  0.69250505     0.08250
H358        H  0.48121121  0.34351439  0.69669237     0.07080
O359        O  0.39729772  0.41867730  0.81048549    -0.72960
O360        O  0.35123827  0.43596289  0.83899861    -0.73940
O361        O  0.35618558  0.39232012  0.83772575    -0.62560
O362        O  0.39233159  0.46241346  0.81213990    -0.70970
O363        O  0.36431091  0.44625262  0.78784069    -0.70520
O364        O  0.32835039  0.37596289  0.81332802    -0.61780
O365        O  0.32319132  0.41957673  0.81471049    -0.74290
O366        O  0.36930151  0.40267439  0.78616065    -0.73070
Cu367      Cu  0.37529365  0.42792505  0.82566172     1.04560
Cu368      Cu  0.34527234  0.41049783  0.79968862     1.04330
C369        C  0.39052044  0.40787589  0.79391118     0.93240
C370        C  0.33005404  0.43074025  0.83112873     0.92380
C371        C  0.33651268  0.37303550  0.82946856     0.84520
C372        C  0.38395889  0.46549451  0.79618119     0.90790
N373        N  0.37602979  0.04268444  0.52536579    -0.27310
N374        N  0.38529104  0.05649016  0.50937445    -0.35170
C375        C  0.36598611  0.04786962  0.49646927     0.01030
C376        C  0.34340006  0.52766520  0.50466960     0.07060
C377        C  0.35044795  0.52471999  0.52298019    -0.06040
H378        H  0.36799772  0.05656029  0.48248179     0.07730
H379        H  0.33769015  0.51148337  0.53406875     0.08930
Cu380      Cu  0.42235811  0.08929481  0.50661988     0.44170
Cu381      Cu  0.39820592  0.05192580  0.55030195     0.41990
Cu382      Cu  0.46237872  0.11359195  0.54851984     0.43880
N383        N  0.45586158  0.12602970  0.50807564    -0.34690
N384        N  0.97071632  0.13524381  0.52355299    -0.28950
C385        C  0.98871042  0.16070945  0.52092047    -0.05050
C386        C  0.98472714  0.16778155  0.50297219     0.07170
C387        C  0.96387193  0.14530441  0.49520292     0.00960
H388        H  0.00254452  0.17342879  0.53171774     0.08620
H389        H  0.95422580  0.14342457  0.48168372     0.07690
N390        N  0.44644102  0.09065526  0.57286653    -0.36140
N391        N  0.42339712  0.06855009  0.57360965    -0.28320
C392        C  0.41820615  0.06033188  0.59199638    -0.03560
C393        C  0.43891606  0.07813188  0.60340346     0.05050
C394        C  0.45642467  0.09705308  0.59071542     0.03140
H395        H  0.39996371  0.04348720  0.59678109     0.08250
H396        H  0.97472099  0.11473223  0.59424371     0.07080
N397        N  0.00550859  0.11746046  0.76569538    -0.27310
N398        N  0.99598606  0.10350572  0.78159900    -0.35170
C399        C  0.01500729  0.11219846  0.79475369     0.01030
C400        C  0.03767442  0.13259380  0.78680255     0.07060
C401        C  0.03097334  0.13559237  0.76838589    -0.06040
H402        H  0.01279546  0.10336004  0.80870814     0.07730
H403        H  0.04393050  0.14890343  0.75740898     0.08930
Cu404      Cu  0.45913747  0.07028473  0.78386698     0.44170
Cu405      Cu  0.48400894  0.10805423  0.74041622     0.41990
Cu406      Cu  0.42045877  0.04541913  0.74145963     0.43880
N407        N  0.42609243  0.03325325  0.78217716    -0.34690
N408        N  0.41167557  0.02376327  0.76651160    -0.28950
C409        C  0.39370317  0.49828889  0.76923533    -0.05050
C410        C  0.39726547  0.49152046  0.78745007     0.07170
C411        C  0.41785028  0.01417691  0.79525161     0.00960
H412        H  0.38005916  0.48540294  0.75840979     0.08620
H413        H  0.42703792  0.01636618  0.80904234     0.07690
N414        N  0.43672342  0.06873447  0.71728274    -0.36140
N415        N  0.45952980  0.09112387  0.71678964    -0.28320
C416        C  0.46503406  0.09949426  0.69844381    -0.03560
C417        C  0.44476919  0.08150738  0.68679542     0.05050
C418        C  0.42719470  0.06233185  0.69931410     0.03140
H419        H  0.98320361  0.11661236  0.69387955     0.08250
H420        H  0.40915284  0.04448910  0.69560313     0.07080
O421        O  0.44801017  0.30671757  0.12159014    -0.72960
O422        O  0.43137052  0.35278522  0.15038568    -0.73940
O423        O  0.47486029  0.34749416  0.14859844    -0.62560
O424        O  0.40460724  0.31187629  0.12347733    -0.70970
O425        O  0.38824635  0.28368435  0.14769577    -0.70520
O426        O  0.45859426  0.31960384  0.17299981    -0.61780
O427        O  0.41490531  0.32468368  0.17465927    -0.74290
O428        O  0.43192963  0.27856139  0.14584115    -0.73070
Cu429      Cu  0.44031486  0.33073273  0.13520827     1.04560
Cu430      Cu  0.42283097  0.30060324  0.16114372     1.04330
C431        C  0.44272818  0.28542822  0.12924984     0.92970
C432        C  0.42022370  0.34592199  0.16683627     0.92380
C433        C  0.47787691  0.33921676  0.16463493     0.84520
C434        C  0.38530794  0.29215419  0.13172417     0.90790
N435        N  0.30170584  0.42669245  0.43017888    -0.27310
N436        N  0.29536409  0.41240650  0.44596125    -0.35170
C437        C  0.28662875  0.42181607  0.45930729     0.01030
C438        C  0.28764787  0.44314378  0.45161996     0.07060
C439        C  0.29733521  0.44577598  0.43313849    -0.06040
H440        H  0.28040238  0.41393387  0.47366120     0.07730
H441        H  0.30101169  0.46047394  0.42265587     0.08930
Cu442      Cu  0.29918089  0.38107183  0.44910413     0.44170
Cu443      Cu  0.31555165  0.41904618  0.40541602     0.41990
Cu444      Cu  0.32358464  0.36413477  0.40875740     0.43880
N445        N  0.30281955  0.34943378  0.44896716    -0.34690
N446        N  0.31179494  0.34309718  0.43407827    -0.28950
C447        C  0.30928412  0.32024923  0.43767803    -0.05050
C448        C  0.29818353  0.31189757  0.45571684     0.07170
C449        C  0.29444402  0.33089010  0.46250323     0.00960
H450        H  0.31392801  0.30988790  0.42752620     0.08620
H451        H  0.28502122  0.33057679  0.47581509     0.07690
N452        N  0.32938034  0.38514130  0.38391586    -0.36140
N453        N  0.32644689  0.40497057  0.38257969    -0.28320
C454        C  0.33022032  0.41301075  0.36416207    -0.03560
C455        C  0.33551306  0.39731107  0.35336179     0.05050
C456        C  0.33501401  0.38000208  0.36644324     0.03140
H457        H  0.32840718  0.42861072  0.35893090     0.08250
H458        H  0.33839418  0.36468163  0.36360674     0.07080
N459        N  0.39690053  0.37800167  0.19704560    -0.27310
N460        N  0.40506639  0.39321526  0.18169051    -0.35170
C461        C  0.41503438  0.38438021  0.16890621     0.01030
C462        C  0.41298402  0.36249309  0.17650267     0.07060
C463        C  0.40136297  0.35891804  0.19436324    -0.06040
H464        H  0.42279131  0.39302949  0.15494848     0.07730
H465        H  0.39632677  0.34351546  0.20456429     0.08930
Cu466      Cu  0.40204264  0.42505939  0.17826338     0.44170
Cu467      Cu  0.38030604  0.38436708  0.22079009     0.41990
Cu468      Cu  0.37350413  0.44017492  0.21671929     0.43880
N469        N  0.39889877  0.45705846  0.17797969    -0.34690
N470        N  0.38851975  0.46282144  0.19224837    -0.28950
C471        C  0.39133207  0.48580120  0.18855811    -0.05050
C472        C  0.40403503  0.49481109  0.17107544     0.07170
C473        C  0.40844079  0.47607866  0.16473223     0.00960
H474        H  0.38536309  0.49558645  0.19817759     0.08620
H475        H  0.41878421  0.47672874  0.15184637     0.07690
N476        N  0.36436121  0.41743081  0.24108068    -0.36140
N477        N  0.36692310  0.39738940  0.24271095    -0.28320
C478        C  0.36136944  0.38859493  0.26093937    -0.03560
C479        C  0.35529361  0.40400883  0.27132611     0.05050
C480        C  0.35715738  0.42191610  0.25816277     0.03140
H481        H  0.36282258  0.37287987  0.26642157     0.08250
H482        H  0.35398263  0.43742623  0.26073334     0.07080
O483        O  0.28627280  0.98115334  0.45360715    -0.72960
O484        O  0.27065157  0.02812398  0.48234414    -0.73940
O485        O  0.31392967  0.02243321  0.48016111    -0.62560
O486        O  0.24312269  0.48683346  0.45574149    -0.70970
O487        O  0.22714465  0.45918123  0.48029614    -0.70520
O488        O  0.29802017  0.49489977  0.50478810    -0.61780
O489        O  0.25473666  0.50042008  0.50688422    -0.74290
O490        O  0.27047348  0.45353636  0.47820205    -0.73070
Cu491      Cu  0.27908764  0.00564653  0.46713350     1.04560
Cu492      Cu  0.26200608  0.47599808  0.49337866     1.04330
C493        C  0.28103524  0.46001622  0.46153427     0.93240
C494        C  0.25998085  0.02156626  0.49897594     0.92380
C495        C  0.31721163  0.01430063  0.49617234     0.84520
C496        C  0.22391005  0.46740147  0.46430312     0.90790
N497        N  0.23811251  0.05410105  0.53002194    -0.27310
N498        N  0.24507626  0.06879227  0.51442238    -0.35170
C499        C  0.25441767  0.05978234  0.50124342     0.01030
C500        C  0.25316454  0.53830156  0.50885375     0.07060
C501        C  0.24270400  0.53516278  0.52711499    -0.06040
H502        H  0.26114867  0.06799665  0.48702876     0.07730
H503        H  0.23855007  0.52015389  0.53745043     0.08930
Cu504      Cu  0.24115029  0.10004427  0.51127474     0.44170
Cu505      Cu  0.22296826  0.06092152  0.55441726     0.41990
Cu506      Cu  0.21535239  0.11614056  0.55120259     0.43880
N507        N  0.23738512  0.13159074  0.51136614    -0.34690
N508        N  0.22797978  0.13768698  0.52611407    -0.28950
C509        C  0.23048932  0.16053861  0.52251683    -0.05050
C510        C  0.24201932  0.16912123  0.50462160     0.07170
C511        C  0.24602421  0.15027495  0.49792337     0.00960
H512        H  0.22546700  0.17070407  0.53256091     0.08620
H513        H  0.25576272  0.15076222  0.48473522     0.07690
N514        N  0.20831223  0.09427179  0.57577555    -0.36140
N515        N  0.21101287  0.07428698  0.57704456    -0.28320
C516        C  0.20684228  0.06592719  0.59539207    -0.03560
C517        C  0.20132872  0.08146317  0.60619194     0.05050
C518        C  0.20245528  0.09920244  0.59323615     0.03140
H519        H  0.20908073  0.05059082  0.60058364     0.08250
H520        H  0.19989739  0.11502875  0.59632769     0.07080
N521        N  0.14420292  0.10642779  0.76262775    -0.27310
N522        N  0.13545505  0.09086945  0.77778997    -0.35170
C523        C  0.12540110  0.09967814  0.79052082     0.01030
C524        C  0.12798777  0.12188908  0.78307668     0.07060
C525        C  0.14001356  0.12568456  0.76536863    -0.06040
H526        H  0.11725116  0.09080596  0.80435342     0.07730
H527        H  0.14558327  0.14139569  0.75533886     0.08930
Cu528      Cu  0.13791261  0.05865129  0.78104318     0.44170
Cu529      Cu  0.16133494  0.10040123  0.73909946     0.41990
Cu530      Cu  0.16692857  0.04384738  0.74271479     0.43880
N531        N  0.14075120  0.02645342  0.78117182    -0.34690
N532        N  0.15127658  0.02079285  0.76694597    -0.28950
C533        C  0.14837702  0.99775693  0.77057187    -0.05050
C534        C  0.13547825  0.98860945  0.78797353     0.07170
C535        C  0.13103268  0.00731180  0.79432891     0.00960
H536        H  0.15453129  0.98808659  0.76100107     0.08620
H537        H  0.12063347  0.00661059  0.80719646     0.07690
N538        N  0.17712376  0.06733469  0.71867318    -0.36140
N539        N  0.17505175  0.08769541  0.71722798    -0.28320
C540        C  0.18080816  0.09675010  0.69907009    -0.03560
C541        C  0.18671764  0.08129064  0.68856538     0.05050
C542        C  0.18420203  0.06289515  0.70152547     0.03140
H543        H  0.17911135  0.11235361  0.69370749     0.08250
H544        H  0.18633522  0.04676923  0.69857020     0.07080
O545        O  0.12639740  0.15988688  0.78498431    -0.72960
O546        O  0.11017721  0.20646033  0.81403703    -0.73940
O547        O  0.15359692  0.20098110  0.81172825    -0.62560
O548        O  0.08299288  0.16538517  0.78703827    -0.70970
O549        O  0.06682250  0.13758682  0.81150012    -0.70520
O550        O  0.13751636  0.17289948  0.83602408    -0.61780
O551        O  0.09434208  0.17842952  0.83837265    -0.74290
O552        O  0.11002590  0.13186782  0.80931302    -0.73070
Cu553      Cu  0.11887001  0.18420169  0.79860235     1.04560
Cu554      Cu  0.10158036  0.15418628  0.82461616     1.04330
C555        C  0.12100367  0.13861844  0.79280349     0.93240
C556        C  0.09960176  0.19970499  0.83070694     0.92380
C557        C  0.15674371  0.19251321  0.82761600     0.84520
C558        C  0.06372073  0.14589433  0.79550575     0.90790
C559        C  0.19767808  0.08115221  0.62728652    -0.05480
C560        C  0.20636271  0.10464440  0.63700639    -0.32910
C561        C  0.20312690  0.10509174  0.65693868     0.36340
C562        C  0.19104168  0.08174741  0.66753992    -0.05840
C563        C  0.18246903  0.05827557  0.65781773    -0.32810
C564        C  0.18573059  0.05783469  0.63789863     0.36240
H565        H  0.21609009  0.12287695  0.62919602     0.16610
O566        O  0.21292338  0.12855940  0.66599729    -0.60310
H567        H  0.17264649  0.04001092  0.66558189     0.16630
O568        O  0.17591233  0.03436168  0.62884544    -0.60410
H569        H  0.18800255  0.02883937  0.63215436     0.43620
H570        H  0.20100657  0.13422849  0.66249980     0.43580
C571        C  0.34018641  0.39864673  0.33233904    -0.05480
C572        C  0.35207089  0.42279615  0.32300385    -0.32910
C573        C  0.35690557  0.42489208  0.30316756     0.36340
C574        C  0.34979233  0.40251659  0.29223924    -0.05840
C575        C  0.33773642  0.37833183  0.30155765    -0.32810
C576        C  0.33292265  0.37624572  0.32140609     0.36240
H577        H  0.35815894  0.44030200  0.33116766     0.16610
O578        O  0.36993253  0.44910843  0.29488612    -0.60310
H579        H  0.33172735  0.36084067  0.29339940     0.16630
O580        O  0.31997329  0.35206134  0.32974617    -0.60410
H581        H  0.33280035  0.34688897  0.33022588     0.43620
H582        H  0.35704879  0.45419449  0.29420689     0.43580
C583        C  0.44064207  0.07873144  0.62472407    -0.05480
C584        C  0.45454764  0.10278267  0.63432582    -0.32910
C585        C  0.45587401  0.10405704  0.65445587     0.36340
C586        C  0.44342149  0.08099532  0.66544597    -0.05840
C587        C  0.42961702  0.05695082  0.65582531    -0.32810
C588        C  0.42827835  0.05568160  0.63570640     0.36240
H589        H  0.46395131  0.12079345  0.62625122     0.16610
O590        O  0.46893637  0.12799796  0.66316444    -0.60310
H591        H  0.42021142  0.03892365  0.66387598     0.16630
O592        O  0.41522117  0.03174572  0.62698873    -0.60410
H593        H  0.42864266  0.02770350  0.62443533     0.43620
H594        H  0.45554650  0.13211229  0.66561550     0.43580
C595        C  0.43831749  0.32413731  0.62661475    -0.05480
C596        C  0.44748287  0.31317007  0.63947095    -0.32910
C597        C  0.45035353  0.31935737  0.65913015     0.36340
C598        C  0.44402866  0.33685918  0.66631984    -0.05840
C599        C  0.43494183  0.34789209  0.65344918    -0.32810
C600        C  0.43206073  0.34169212  0.63378839     0.36240
H601        H  0.45195742  0.29926928  0.63436765     0.16610
O602        O  0.45803940  0.30711402  0.67130932    -0.60310
H603        H  0.43043536  0.36176742  0.65855691     0.16630
O604        O  0.42433551  0.35388924  0.62159481    -0.60410
H605        H  0.40551433  0.34583429  0.62422108     0.43620
H606        H  0.47687990  0.31521590  0.66873651     0.43580
C607        C  0.10285636  0.15764314  0.33303809    -0.05480
C608        C  0.07778572  0.14494312  0.32503335    -0.32910
C609        C  0.07350957  0.13719999  0.30568741     0.36340
C610        C  0.09458228  0.14241139  0.29377246    -0.05840
C611        C  0.11962740  0.15500206  0.30180624    -0.32810
C612        C  0.12390183  0.16272684  0.32114542     0.36240
H613        H  0.06125804  0.14056275  0.33388527     0.16610
O614        O  0.04852876  0.12409097  0.29878061    -0.60310
H615        H  0.13618436  0.15946831  0.29295967     0.16630
O616        O  0.14889424  0.17585488  0.32802913    -0.60410
H617        H  0.15556032  0.19454106  0.32623452     0.43620
H618        H  0.04191663  0.10539733  0.30043953     0.43580
C619        C  0.10135363  0.40632356  0.33525217    -0.05480
C620        C  0.12435593  0.41818114  0.32427257    -0.32910
C621        C  0.12354232  0.41777509  0.30412177     0.36340
C622        C  0.09941192  0.40561299  0.29449198    -0.05840
C623        C  0.07641561  0.39382533  0.30546536    -0.32810
C624        C  0.07722684  0.39426412  0.32561340     0.36240
H625        H  0.14312090  0.42727698  0.33128637     0.16610
O626        O  0.14648898  0.42885171  0.29405289    -0.60310
H627        H  0.05765546  0.38470038  0.29843680     0.16630
O628        O  0.05427314  0.38323973  0.33566663    -0.60410
H629        H  0.05164006  0.39765184  0.33806816     0.43620
H630        H  0.14922721  0.41449682  0.29171499     0.43580
C631        C  0.02904723  0.24799313  0.96042926    -0.05480
C632        C  0.51628584  0.22243145  0.96752674    -0.32910
C633        C  0.50824606  0.21680930  0.98678735     0.36340
C634        C  0.01317931  0.23697708  0.99955350    -0.05840
C635        C  0.02595167  0.26254353  0.99245303    -0.32810
C636        C  0.03397272  0.26816032  0.97318683     0.36240
H637        H  0.51201865  0.20653713  0.95801863     0.16610
O638        O  0.49505088  0.19140330  0.99275635    -0.60310
H639        H  0.03022773  0.27844407  0.00195605     0.16630
O640        O  0.04713756  0.29355781  0.96719719    -0.60410
H641        H  0.06583200  0.30013554  0.96891234     0.43620
H642        H  0.47636360  0.18484409  0.99102217     0.43580
C643        C  0.26734240  0.48902052  0.00053526    -0.05480
C644        C  0.29119981  0.99911694  0.99091202    -0.32910
C645        C  0.29232978  0.99885507  0.97081930     0.36340
C646        C  0.26929810  0.48807592  0.95994346    -0.05840
C647        C  0.24542634  0.47790603  0.96956660    -0.32810
C648        C  0.24430062  0.47818041  0.98966594     0.36240
H649        H  0.30922043  0.00791656  0.99893203     0.16610
O650        O  0.31614189  0.00972955  0.96201399    -0.60310
H651        H  0.22741889  0.46916129  0.96153361     0.16630
O652        O  0.22050769  0.46738976  0.99848694    -0.60410
H653        H  0.21469200  0.44906532  0.00107317     0.43620
H654        H  0.32193545  0.02806150  0.95948860     0.43580
C655        C  0.27096098  0.24623847  0.95894099    -0.05480
C656        C  0.29494574  0.25822572  0.96854639    -0.32910
C657        C  0.29614978  0.25465972  0.98834890     0.36340
C658        C  0.27303069  0.23912966  0.99909518    -0.05840
C659        C  0.24904985  0.22718743  0.98948938    -0.32810
C660        C  0.24784617  0.23075106  0.96969508     0.36240
H661        H  0.31296260  0.27000310  0.96060868     0.16610
O662        O  0.32012732  0.26599082  0.99685996    -0.60310
H663        H  0.23102317  0.21541807  0.99741614     0.16630
O664        O  0.22386401  0.21944426  0.96119395    -0.60410
H665        H  0.21950310  0.23287406  0.96165986     0.43620
H666        H  0.32454096  0.25260138  0.99635445     0.43580
N667        N  0.23520876  0.66973443  0.09784864    -0.27310
N668        N  0.24831410  0.67933302  0.11408097    -0.35170
C669        C  0.23881244  0.66049091  0.12743857     0.01030
C670        C  0.21870650  0.63780698  0.11936672     0.07060
C671        C  0.21676094  0.64432978  0.10058468    -0.06040
H672        H  0.24682804  0.66287566  0.14173416     0.07730
H673        H  0.20385743  0.63130916  0.08948598     0.08930
Cu674      Cu  0.28128142  0.71616647  0.11709874     0.44170
Cu675      Cu  0.24584258  0.69145231  0.07239247     0.41990
Cu676      Cu  0.30749227  0.75583822  0.07558387     0.43880
N677        N  0.31811056  0.74959316  0.11652327    -0.34690
N678        N  0.32806477  0.76443783  0.10109103    -0.28950
C679        C  0.35331380  0.78266012  0.10436213    -0.05050
C680        C  0.35947882  0.77883510  0.12270374     0.07170
C681        C  0.33668512  0.75780483  0.13001771     0.00960
H682        H  0.36652707  0.79660857  0.09379123     0.08620
H683        H  0.33413310  0.74826751  0.14371121     0.07690
N684        N  0.28547422  0.74054073  0.05080285    -0.36140
N685        N  0.26347985  0.71747651  0.04941950    -0.28320
C686        C  0.25553630  0.71361286  0.03094295    -0.03560
C687        C  0.27349292  0.73513106  0.02016784     0.05050
C688        C  0.29204946  0.75183487  0.03336093     0.03140
H689        H  0.23831497  0.69608348  0.02565439     0.08250
H690        H  0.30919190  0.77088715  0.03062616     0.07080
N691        N  0.30703341  0.81521763  0.86002575    -0.27310
N692        N  0.29369557  0.80553729  0.84389149    -0.35170
C693        C  0.30276964  0.82439919  0.83056445     0.01030
C694        C  0.32283579  0.84717033  0.83856354     0.07060
C695        C  0.32520317  0.84068333  0.85725498    -0.06040
H696        H  0.29450832  0.82194699  0.81635344     0.07730
H697        H  0.33822453  0.85375720  0.86828266     0.08930
Cu698      Cu  0.26099095  0.76850659  0.84104834     0.44170
Cu699      Cu  0.29712472  0.79356136  0.88548250     0.41990
Cu700      Cu  0.23585203  0.72890801  0.88268185     0.43880
N701        N  0.22428171  0.73495997  0.84198400    -0.34690
N702        N  0.21469291  0.72016073  0.85746834    -0.28950
C703        C  0.18935640  0.70194831  0.85450357    -0.05050
C704        C  0.18276328  0.70573731  0.83630730     0.07170
C705        C  0.20538995  0.72672154  0.82875795     0.00960
H706        H  0.17638315  0.68806407  0.86520293     0.08620
H707        H  0.20760948  0.73625190  0.81511421     0.07690
N708        N  0.25820590  0.74441473  0.90727873    -0.36140
N709        N  0.28007409  0.76759866  0.90855597    -0.28320
C710        C  0.28818213  0.77162073  0.92700027    -0.03560
C711        C  0.27044140  0.75008079  0.93785358     0.05050
C712        C  0.25187316  0.73319849  0.92474403     0.03140
H713        H  0.30531249  0.78928561  0.93222643     0.08250
H714        H  0.23483733  0.71410373  0.92756446     0.07080
O715        O  0.29800359  0.75945927  0.50588328    -0.72960
O716        O  0.22939791  0.73368579  0.48003257    -0.73940
O717        O  0.24915412  0.71132766  0.50475067    -0.62560
O718        O  0.27802777  0.78159272  0.48120461    -0.70970
O719        O  0.29103602  0.76969087  0.45559864    -0.70520
O720        O  0.26223190  0.69945932  0.47916636    -0.61780
O721        O  0.24224335  0.72155702  0.45447391    -0.74290
O722        O  0.31082680  0.74736553  0.48029135    -0.73070
Cu723      Cu  0.26318044  0.74692823  0.49386414     1.04560
Cu724      Cu  0.27704786  0.73410511  0.46649032     1.04330
C725        C  0.31516149  0.75727223  0.49715164     0.93240
C726        C  0.22508640  0.72377236  0.46317263     0.92380
C727        C  0.25136926  0.69441214  0.49571452     0.84520
C728        C  0.28885294  0.78662157  0.46464349     0.90790
O729        O  0.13794805  0.93864551  0.83851090    -0.72960
O730        O  0.06793482  0.91019382  0.81412079    -0.73940
O731        O  0.08960300  0.88992400  0.83915622    -0.62560
O732        O  0.11598465  0.95878480  0.81382281    -0.70970
O733        O  0.12873453  0.94647329  0.78830934    -0.70520
O734        O  0.10200672  0.87735234  0.81359704    -0.61780
O735        O  0.08049718  0.89770305  0.78860155    -0.74290
O736        O  0.15009764  0.92582722  0.81294189    -0.73070
Cu737      Cu  0.10240738  0.92481614  0.82729871     1.04560
Cu738      Cu  0.11574709  0.91137601  0.79997682     1.04330
C739        C  0.15500527  0.93655302  0.82950527     0.93240
C740        C  0.06333633  0.89974942  0.79743081     0.92380
C741        C  0.09189152  0.87287345  0.83042028     0.84520
C742        C  0.12643358  0.96348382  0.79713586     0.90790
N743        N  0.24139789  0.02900025  0.09741670    -0.27310
N744        N  0.25697034  0.03735836  0.11254731    -0.35170
C745        C  0.24867344  0.04790771  0.12527208     0.01030
C746        C  0.22679501  0.04604375  0.11780910     0.07060
C747        C  0.22264887  0.03391961  0.10014240    -0.06040
H748        H  0.25772565  0.55601787  0.13904880     0.07730
H749        H  0.20712933  0.02892523  0.09006959     0.08930
Cu750      Cu  0.28874918  0.03409956  0.11538488     0.44170
Cu751      Cu  0.24703881  0.01196018  0.07375275     0.41990
Cu752      Cu  0.30360341  0.00625726  0.07600518     0.43880
N753        N  0.32103305  0.03141558  0.11474251    -0.34690
N754        N  0.32673787  0.02137288  0.10020024    -0.28950
C755        C  0.35007520  0.02470251  0.10338764    -0.05050
C756        C  0.35936278  0.03740393  0.12081325     0.07170
C757        C  0.34043774  0.04124841  0.12765033     0.00960
H758        H  0.35990374  0.01912729  0.09345727     0.08620
H759        H  0.34120371  0.55144476  0.14063988     0.07690
N760        N  0.28028766  0.99747925  0.05204917    -0.36140
N761        N  0.25986702  0.99954475  0.05116534    -0.28320
C762        C  0.25122021  0.99545456  0.03292271    -0.03560
C763        C  0.26702906  0.99069206  0.02176164     0.05050
C764        C  0.28518697  0.99207144  0.03441818     0.03140
H765        H  0.23582440  0.99777347  0.02797401     0.08250
H766        H  0.30159881  0.99057282  0.03094392     0.07080
N767        N  0.29806971  0.95369433  0.86167749    -0.27310
N768        N  0.28295296  0.94608707  0.84630327    -0.35170
C769        C  0.29181099  0.93641540  0.83326608     0.01030
C770        C  0.31358389  0.93809406  0.84078232     0.07060
C771        C  0.31707938  0.94918569  0.85880147    -0.06040
H772        H  0.28317389  0.92896706  0.81927158     0.07730
H773        H  0.33226604  0.95365181  0.86905388     0.08930
Cu774      Cu  0.25097261  0.94910263  0.84362367     0.44170
Cu775      Cu  0.29138129  0.96896402  0.88593463     0.41990
Cu776      Cu  0.23472814  0.97440280  0.88402599     0.43880
N777        N  0.21861497  0.95171662  0.84444070    -0.34690
N778        N  0.21250182  0.96092523  0.85931151    -0.28950
C779        C  0.18925232  0.95777311  0.85609180    -0.05050
C780        C  0.18041300  0.94603408  0.83831399     0.07170
C781        C  0.19952887  0.94257839  0.83129740     0.00960
H782        H  0.17910399  0.96266777  0.86626598     0.08620
H783        H  0.19906531  0.93303498  0.81802425     0.07690
N784        N  0.25713895  0.98156338  0.90827851    -0.36140
N785        N  0.27763092  0.97960805  0.90901899    -0.28320
C786        C  0.28585115  0.48276536  0.92733674    -0.03560
C787        C  0.26969852  0.48682437  0.93869592     0.05050
C788        C  0.25175434  0.48596300  0.92608578     0.03140
H789        H  0.30132961  0.48048084  0.93212309     0.08250
H790        H  0.23529657  0.48734511  0.92965307     0.07080
N791        N  0.96388273  0.75321336  0.09709274    -0.27310
N792        N  0.95642881  0.73780024  0.11230000    -0.35170
C793        C  0.44745103  0.74666962  0.12590852     0.01030
C794        C  0.44944893  0.76882936  0.11897770     0.07060
C795        C  0.95996283  0.77248104  0.10067109    -0.06040
H796        H  0.44030577  0.73779459  0.13989603     0.07730
H797        H  0.96450915  0.78800754  0.09072899     0.08930
Cu798      Cu  0.95911516  0.70566818  0.11401001     0.44170
Cu799      Cu  0.97878047  0.74672616  0.07234292     0.41990
Cu800      Cu  0.98338274  0.68929608  0.07270379     0.43880
N801        N  0.96165317  0.67341025  0.11283717    -0.34690
N802        N  0.97026407  0.66700382  0.09773832    -0.28950
C803        C  0.96754676  0.64399209  0.10126351    -0.05050
C804        C  0.45674265  0.63570345  0.11944826     0.07170
C805        C  0.45335332  0.65485418  0.12634919     0.00960
H806        H  0.97228295  0.63369460  0.09112263     0.08620
H807        H  0.44456438  0.65485715  0.13990322     0.07690
N808        N  0.99321730  0.71419812  0.04926680    -0.36140
N809        N  0.99154442  0.73487428  0.04918222    -0.28320
C810        C  0.99859193  0.74611429  0.03171056    -0.03560
C811        C  0.00487788  0.73181601  0.02009290     0.05050
C812        C  0.00136620  0.71178744  0.03182435     0.03140
H813        H  0.99852406  0.76314572  0.02765283     0.08250
H814        H  0.00459408  0.69657737  0.02810884     0.07080
N815        N  0.07856668  0.73191978  0.86295679    -0.27310
N816        N  0.08570337  0.74716267  0.84766986    -0.35170
C817        C  0.09469630  0.73833499  0.83404404     0.01030
C818        C  0.09302996  0.71636858  0.84104456     0.07060
C819        C  0.08270395  0.71279255  0.85941265    -0.06040
H820        H  0.10152377  0.74704171  0.81997138     0.07730
H821        H  0.07834789  0.69736126  0.86939304     0.08930
Cu822      Cu  0.08235058  0.77885831  0.84581678     0.44170
Cu823      Cu  0.06361613  0.73835908  0.88769698     0.41990
Cu824      Cu  0.05801264  0.79520487  0.88709119     0.43880
N825        N  0.07915909  0.81070796  0.84678349    -0.34690
N826        N  0.07054012  0.81713081  0.86186718    -0.28950
C827        C  0.07289283  0.83994260  0.85819477    -0.05050
C828        C  0.08346848  0.84807442  0.83993198     0.07170
C829        C  0.08709856  0.82904318  0.83313773     0.00960
H830        H  0.06812642  0.85025145  0.86830056     0.08620
H831        H  0.09587322  0.82901725  0.81958273     0.07690
N832        N  0.04870684  0.77060601  0.91066033    -0.36140
N833        N  0.05069696  0.75011952  0.91081475    -0.28320
C834        C  0.04382389  0.73897773  0.92832454    -0.03560
C835        C  0.03733249  0.75314868  0.93989346     0.05050
C836        C  0.04054244  0.77300039  0.92810318     0.03140
H837        H  0.04412682  0.72209214  0.93243740     0.08250
H838        H  0.03706732  0.78805453  0.93177979     0.07080
O839        O  0.45028455  0.59369528  0.12005421    -0.72960
O840        O  0.42371686  0.52470082  0.14527551    -0.73940
O841        O  0.40188100  0.54492280  0.12058756    -0.62560
O842        O  0.47182382  0.57326362  0.14507555    -0.70970
O843        O  0.45916322  0.58556218  0.17064864    -0.70520
O844        O  0.38975187  0.55784731  0.14610604    -0.61780
O845        O  0.41083135  0.53695211  0.17074492    -0.74290
O846        O  0.43794859  0.60624802  0.14566225    -0.73070
Cu847      Cu  0.43739059  0.55872586  0.13184697     1.04560
Cu848      Cu  0.42400943  0.57211966  0.15917084     1.04330
C849        C  0.44810005  0.61077730  0.12885114     0.93240
C850        C  0.41315459  0.01995491  0.16192426     0.92380
C851        C  0.38482859  0.54704206  0.12957092     0.84520
C852        C  0.47634037  0.58353341  0.16182532     0.90790
N853        N  0.16533740  0.93957119  0.43489777    -0.27310
N854        N  0.15590874  0.92551541  0.45076572    -0.35170
C855        C  0.17509692  0.93386101  0.46374763     0.01030
C856        C  0.19777788  0.45415082  0.45572152     0.07060
C857        C  0.19090786  0.45742740  0.43744197    -0.06040
H858        H  0.17293559  0.92494398  0.47766070     0.07730
H859        H  0.20377869  0.47083876  0.42647637     0.08930
Cu860      Cu  0.11875687  0.89278786  0.45319154     0.44170
Cu861      Cu  0.14339828  0.93084682  0.40987407     0.41990
Cu862      Cu  0.07934214  0.86898182  0.41094003     0.43880
N863        N  0.08527137  0.85609997  0.45140207    -0.34690
N864        N  0.07065981  0.84700889  0.43579793    -0.28950
C865        C  0.55260289  0.82152284  0.43830409    -0.05050
C866        C  0.55630450  0.81432696  0.45630334     0.07170
C867        C  0.07705264  0.83674262  0.46422271     0.00960
H868        H  0.53890691  0.80888422  0.42740879     0.08620
H869        H  0.08648608  0.83853231  0.47782902     0.07690
N870        N  0.09533718  0.89264651  0.38691449    -0.36140
N871        N  0.11838975  0.91476059  0.38640847    -0.28320
C872        C  0.12361274  0.92350049  0.36814779    -0.03560
C873        C  0.10288224  0.90610780  0.35657817     0.05050
C874        C  0.08534713  0.88680983  0.36904631     0.03140
H875        H  0.14160613  0.94082574  0.36356202     0.08250
H876        H  0.06735894  0.86893691  0.36531943     0.07080
N877        N  0.03602131  0.86842353  0.19462434    -0.27310
N878        N  0.04550516  0.88206595  0.17858650    -0.35170
C879        C  0.02650319  0.87303541  0.16539781     0.01030
C880        C  0.50386993  0.85272824  0.17344816     0.07060
C881        C  0.51057608  0.85013612  0.19198044    -0.06040
H882        H  0.02870222  0.88158750  0.15132551     0.07730
H883        H  0.49763616  0.83699912  0.20304057     0.08930
Cu884      Cu  0.08223732  0.91534928  0.17607916     0.44170
Cu885      Cu  0.05767269  0.87848722  0.21989033     0.41990
Cu886      Cu  0.12105915  0.94137965  0.21833297     0.43880
N887        N  0.11507933  0.95252333  0.17737489    -0.34690
N888        N  0.12955381  0.96243133  0.19297596    -0.28950
C889        C  0.14743388  0.48784875  0.18993458    -0.05050
C890        C  0.14373817  0.49414559  0.17158738     0.07170
C891        C  0.12317170  0.97127231  0.16403395     0.00960
H892        H  0.16113018  0.50101971  0.20062009     0.08620
H893        H  0.11392635  0.96870404  0.15021310     0.07690
N894        N  0.10525700  0.91824738  0.24266830    -0.36140
N895        N  0.08246776  0.89584194  0.24333093    -0.28320
C896        C  0.07733416  0.88752488  0.26169438    -0.03560
C897        C  0.09784995  0.90547503  0.27316560     0.05050
C898        C  0.11517206  0.92467021  0.26054656     0.03140
H899        H  0.05957536  0.87003385  0.26639827     0.08250
H900        H  0.13298116  0.94278990  0.26415400     0.07080
N901        N  0.08406146  0.71000940  0.42837015    -0.27310
N902        N  0.09943046  0.71787046  0.44361519    -0.35170
C903        C  0.09052698  0.72725300  0.45685528     0.01030
C904        C  0.06839727  0.72513237  0.44969265     0.07060
C905        C  0.06478826  0.71409862  0.43158899    -0.06040
H906        H  0.09921286  0.73451513  0.47086462     0.07730
H907        H  0.04913069  0.70904762  0.42163947     0.08930
Cu908      Cu  0.13128130  0.71473298  0.44634279     0.44170
Cu909      Cu  0.09032192  0.69381147  0.40423605     0.41990
Cu910      Cu  0.14683614  0.68759972  0.40694792     0.43880
N911        N  0.16307064  0.71124988  0.44635240    -0.34690
N912        N  0.16914704  0.70153119  0.43180383    -0.28950
C913        C  0.19186511  0.70378294  0.43570474    -0.05050
C914        C  0.20032624  0.71541047  0.45359949     0.07170
C915        C  0.18156485  0.71978467  0.45993906     0.00960
H916        H  0.20183324  0.69810685  0.42600527     0.08620
H917        H  0.18182403  0.72939521  0.47311782     0.07690
N918        N  0.12276107  0.67752913  0.38309838    -0.36140
N919        N  0.10244507  0.67977210  0.38204288    -0.28320
C920        C  0.09208327  0.67263377  0.36430501    -0.03560
C921        C  0.10666326  0.66576711  0.35358249     0.05050
C922        C  0.12583110  0.66895056  0.36609234     0.03140
H923        H  0.07559580  0.67318363  0.35940779     0.08250
H924        H  0.14101749  0.66537621  0.36316673     0.07080
N925        N  0.11750940  0.59808497  0.19612861    -0.27310
N926        N  0.10289031  0.59147551  0.18052531    -0.35170
C927        C  0.11230961  0.58299664  0.16697943     0.01030
C928        C  0.13402538  0.58446325  0.17432524     0.07060
C929        C  0.13684997  0.59413733  0.19283793    -0.06040
H930        H  0.10407050  0.57649651  0.15275790     0.07730
H931        H  0.15178098  0.59796866  0.20314440     0.08930
Cu932      Cu  0.07097284  0.59441735  0.17798787     0.44170
Cu933      Cu  0.10974622  0.61166794  0.22106855     0.41990
Cu934      Cu  0.05286824  0.61709526  0.21892064     0.43880
N935        N  0.03879325  0.59713813  0.17836109    -0.34690
N936        N  0.03186789  0.60532842  0.19340533    -0.28950
C937        C  0.00898446  0.60272606  0.18958216    -0.05050
C938        C  0.00127447  0.59240117  0.17125389     0.07170
C939        C  0.02065384  0.58918460  0.16455712     0.00960
H940        H  0.99825435  0.60697848  0.19968505     0.08620
H941        H  0.02098457  0.58057156  0.15101901     0.07690
N942        N  0.07576703  0.62511203  0.24322205    -0.36140
N943        N  0.09625904  0.62314247  0.24404906    -0.28320
C944        C  0.10604972  0.62906775  0.26199868    -0.03560
C945        C  0.09093312  0.63488845  0.27309810     0.05050
C946        C  0.07200421  0.63230646  0.26060060     0.03140
H947        H  0.12269785  0.62867188  0.26669396     0.08250
H948        H  0.05669078  0.63562827  0.26373086     0.07080
O949        O  0.17195399  0.58292168  0.17199506    -0.72960
O950        O  0.21770571  0.56534979  0.14363055    -0.73940
O951        O  0.21285872  0.60913625  0.14473576    -0.62560
O952        O  0.17678442  0.53929419  0.17069233    -0.70970
O953        O  0.14854378  0.02283288  0.14653770    -0.70520
O954        O  0.18501357  0.59268914  0.12034922    -0.61780
O955        O  0.18945921  0.54869243  0.11947489    -0.74290
O956        O  0.14389571  0.56679314  0.14771142    -0.73070
Cu957      Cu  0.19584717  0.57480883  0.15857257     1.04560
Cu958      Cu  0.16569295  0.55717212  0.13268870     1.04330
C959        C  0.15071710  0.57768668  0.16424805     0.93240
C960        C  0.21063572  0.55388017  0.12732560     0.92380
C961        C  0.20477151  0.61198484  0.12854123     0.84520
C962        C  0.15701560  0.51997340  0.16253852     0.90790
O963        O  0.01076290  0.75585784  0.50688956    -0.72960
O964        O  0.05807529  0.74174275  0.47673209    -0.73940
O965        O  0.05178437  0.78449843  0.48022458    -0.62560
O966        O  0.01702073  0.71312818  0.50341306    -0.70970
O967        O  0.48908961  0.69756016  0.47904204    -0.70520
O968        O  0.02391490  0.76896959  0.45581583    -0.61780
O969        O  0.03011939  0.72617533  0.45237913    -0.74290
O970        O  0.48281256  0.74034627  0.48253345    -0.73070
Cu971      Cu  0.03542175  0.74937320  0.49264165     1.04560
Cu972      Cu  0.50546948  0.73270161  0.46661058     1.04330
C973        C  0.98940391  0.75055679  0.49929950     0.93240
C974        C  0.05146506  0.73146559  0.45998999     0.92380
C975        C  0.04331247  0.78803275  0.46449110     0.84520
C976        C  0.49761953  0.69404954  0.49475671     0.90790
N977        N  0.45662822  0.77152120  0.53120453    -0.27310
N978        N  0.44123583  0.76373051  0.51597531    -0.35170
C979        C  0.45021252  0.75456048  0.50261519     0.01030
C980        C  0.97241978  0.75675430  0.50968341     0.07060
C981        C  0.97599050  0.76760191  0.52785635    -0.06040
H982        H  0.44151119  0.74737690  0.48859922     0.07730
H983        H  0.99167882  0.77263567  0.53777025     0.08930
Cu984      Cu  0.40925598  0.76669626  0.51347453     0.44170
Cu985      Cu  0.45031866  0.78748917  0.55546873     0.41990
Cu986      Cu  0.39405821  0.79412276  0.55293963     0.43880
N987        N  0.37736588  0.77001874  0.51369848    -0.34690
N988        N  0.37140667  0.77981711  0.52826358    -0.28950
C989        C  0.34860493  0.77745444  0.52448718    -0.05050
C990        C  0.33997415  0.76567749  0.50665520     0.07170
C991        C  0.35871688  0.76132839  0.50022586     0.00960
H992        H  0.33872703  0.78320575  0.53421356     0.08620
H993        H  0.35836674  0.75166713  0.48704913     0.07690
N994        N  0.41854844  0.80463104  0.57657695    -0.36140
N995        N  0.43858070  0.80192861  0.57764901    -0.28320
C996        C  0.44899272  0.80899014  0.59537797    -0.03560
C997        C  0.43498570  0.81666537  0.60596602     0.05050
C998        C  0.41581429  0.81358375  0.59352793     0.03140
H999        H  0.46535606  0.80822255  0.60027742     0.08250
H1000       H  0.40020682  0.81643478  0.59675644     0.07080
N1001       N  0.42305988  0.88635218  0.76235351    -0.27310
N1002       N  0.43782249  0.89325637  0.77789615    -0.35170
C1003       C  0.42878146  0.90236221  0.79124257     0.01030
C1004       C  0.40715336  0.90100975  0.78384578     0.07060
C1005       C  0.40399099  0.89074823  0.76549640    -0.06040
H1006       H  0.43710844  0.90903732  0.80542154     0.07730
H1007       H  0.38889090  0.88662518  0.75526235     0.08930
Cu1008     Cu  0.46918733  0.88952233  0.78079226     0.44170
Cu1009     Cu  0.43002070  0.87129918  0.73783990     0.41990
Cu1010     Cu  0.48572098  0.86394055  0.74094295     0.43880
N1011       N  0.50090379  0.88608438  0.78084669    -0.34690
N1012       N  0.50734736  0.87692206  0.76614467    -0.28950
C1013       C  0.03016997  0.87943078  0.77004785    -0.05050
C1014       C  0.03831379  0.89068249  0.78808346     0.07170
C1015       C  0.51926312  0.89454462  0.79452225     0.00960
H1016       H  0.04055095  0.87444322  0.76018232     0.08620
H1017       H  0.51933365  0.90396668  0.80775050     0.07690
N1018       N  0.46236648  0.85484341  0.71677744    -0.36140
N1019       N  0.44249615  0.85777402  0.71550638    -0.28320
C1020       C  0.43272382  0.85145023  0.69755677    -0.03560
C1021       C  0.44698679  0.84402206  0.68702890     0.05050
C1022       C  0.46564856  0.84649617  0.69973603     0.03140
H1023       H  0.41653499  0.85241734  0.69250506     0.08250
H1024       H  0.48121120  0.84351437  0.69669237     0.07080
O1025       O  0.39729771  0.91867730  0.81048549    -0.72960
O1026       O  0.35123827  0.93596289  0.83899861    -0.73940
O1027       O  0.35618557  0.89232012  0.83772575    -0.62560
O1028       O  0.39233158  0.96241346  0.81213990    -0.70970
O1029       O  0.36431090  0.94625262  0.78784069    -0.70520
O1030       O  0.32835039  0.87596289  0.81332802    -0.61780
O1031       O  0.32319131  0.91957673  0.81471049    -0.74290
O1032       O  0.36930150  0.90267439  0.78616065    -0.73070
Cu1033     Cu  0.37529364  0.92792505  0.82566172     1.04560
Cu1034     Cu  0.34527234  0.91049783  0.79968862     1.04330
C1035       C  0.39052043  0.90787590  0.79391118     0.93240
C1036       C  0.33005403  0.93074025  0.83112873     0.92380
C1037       C  0.33651267  0.87303550  0.82946856     0.84520
C1038       C  0.38395889  0.96549451  0.79618120     0.90790
N1039       N  0.37602978  0.54268444  0.52536579    -0.27310
N1040       N  0.38529103  0.55649016  0.50937445    -0.35170
C1041       C  0.36598610  0.54786962  0.49646927     0.01030
C1042       C  0.34340007  0.02766521  0.50466960     0.07060
C1043       C  0.35044796  0.02471999  0.52298019    -0.06040
H1044       H  0.36799771  0.55656029  0.48248179     0.07730
H1045       H  0.33769016  0.01148338  0.53406875     0.08930
Cu1046     Cu  0.42235810  0.58929481  0.50661987     0.44170
Cu1047     Cu  0.39820591  0.55192580  0.55030195     0.41990
Cu1048     Cu  0.46237872  0.61359195  0.54851983     0.43880
N1049       N  0.45586157  0.62602971  0.50807563    -0.34690
N1050       N  0.97071632  0.63524381  0.52355299    -0.28950
C1051       C  0.98871042  0.66070945  0.52092047    -0.05050
C1052       C  0.98472714  0.66778155  0.50297218     0.07170
C1053       C  0.96387192  0.64530441  0.49520291     0.00960
H1054       H  0.00254451  0.67342879  0.53171774     0.08620
H1055       H  0.95422580  0.64342457  0.48168371     0.07690
N1056       N  0.44644102  0.59065525  0.57286652    -0.36140
N1057       N  0.42339712  0.56855009  0.57360965    -0.28320
C1058       C  0.41820615  0.56033187  0.59199637    -0.03560
C1059       C  0.43891607  0.57813187  0.60340345     0.05050
C1060       C  0.45642467  0.59705307  0.59071541     0.03140
H1061       H  0.39996371  0.54348719  0.59678108     0.08250
H1062       H  0.97472098  0.61473224  0.59424371     0.07080
N1063       N  0.00550860  0.61746046  0.76569538    -0.27310
N1064       N  0.99598607  0.60350573  0.78159900    -0.35170
C1065       C  0.01500730  0.61219846  0.79475369     0.01030
C1066       C  0.03767443  0.63259380  0.78680255     0.07060
C1067       C  0.03097335  0.63559237  0.76838589    -0.06040
H1068       H  0.01279547  0.60336005  0.80870814     0.07730
H1069       H  0.04393051  0.64890343  0.75740898     0.08930
Cu1070     Cu  0.45913748  0.57028473  0.78386697     0.44170
Cu1071     Cu  0.48400895  0.60805423  0.74041621     0.41990
Cu1072     Cu  0.42045878  0.54541913  0.74145962     0.43880
N1073       N  0.42609244  0.53325325  0.78217716    -0.34690
N1074       N  0.41167558  0.52376327  0.76651159    -0.28950
C1075       C  0.39370316  0.99828889  0.76923533    -0.05050
C1076       C  0.39726546  0.99152046  0.78745007     0.07170
C1077       C  0.41785029  0.51417691  0.79525161     0.00960
H1078       H  0.38005915  0.98540294  0.75840979     0.08620
H1079       H  0.42703793  0.51636618  0.80904233     0.07690
N1080       N  0.43672343  0.56873446  0.71728273    -0.36140
N1081       N  0.45952981  0.59112386  0.71678964    -0.28320
C1082       C  0.46503408  0.59949426  0.69844380    -0.03560
C1083       C  0.44476920  0.58150737  0.68679541     0.05050
C1084       C  0.42719471  0.56233184  0.69931410     0.03140
H1085       H  0.98320362  0.61661237  0.69387954     0.08250
H1086       H  0.40915285  0.54448909  0.69560312     0.07080
O1087       O  0.44801017  0.80671758  0.12159015    -0.72960
O1088       O  0.43137052  0.85278522  0.15038569    -0.73940
O1089       O  0.47486029  0.84749416  0.14859844    -0.62560
O1090       O  0.40460725  0.81187629  0.12347733    -0.70970
O1091       O  0.38824635  0.78368435  0.14769578    -0.70520
O1092       O  0.45859425  0.81960384  0.17299982    -0.61780
O1093       O  0.41490531  0.82468368  0.17465928    -0.74290
O1094       O  0.43192963  0.77856139  0.14584115    -0.73070
Cu1095     Cu  0.44031486  0.83073273  0.13520827     1.04560
Cu1096     Cu  0.42283097  0.80060324  0.16114373     1.04330
C1097       C  0.44272818  0.78542822  0.12924985     0.92970
C1098       C  0.42022370  0.84592199  0.16683627     0.92380
C1099       C  0.47787691  0.83921676  0.16463494     0.84520
C1100       C  0.38530794  0.79215419  0.13172418     0.90790
N1101       N  0.30170585  0.92669246  0.43017889    -0.27310
N1102       N  0.29536410  0.91240650  0.44596125    -0.35170
C1103       C  0.28662876  0.92181608  0.45930729     0.01030
C1104       C  0.28764788  0.94314379  0.45161996     0.07060
C1105       C  0.29733522  0.94577599  0.43313849    -0.06040
H1106       H  0.28040239  0.91393388  0.47366120     0.07730
H1107       H  0.30101170  0.96047394  0.42265587     0.08930
Cu1108     Cu  0.29918090  0.88107183  0.44910413     0.44170
Cu1109     Cu  0.31555166  0.91904619  0.40541602     0.41990
Cu1110     Cu  0.32358465  0.86413478  0.40875741     0.43880
N1111       N  0.30281955  0.84943378  0.44896716    -0.34690
N1112       N  0.31179495  0.84309718  0.43407827    -0.28950
C1113       C  0.30928413  0.82024924  0.43767803    -0.05050
C1114       C  0.29818354  0.81189758  0.45571684     0.07170
C1115       C  0.29444403  0.83089010  0.46250323     0.00960
H1116       H  0.31392801  0.80988791  0.42752620     0.08620
H1117       H  0.28502123  0.83057680  0.47581509     0.07690
N1118       N  0.32938035  0.88514131  0.38391586    -0.36140
N1119       N  0.32644690  0.90497058  0.38257969    -0.28320
C1120       C  0.33022033  0.91301076  0.36416207    -0.03560
C1121       C  0.33551307  0.89731107  0.35336179     0.05050
C1122       C  0.33501402  0.88000209  0.36644324     0.03140
H1123       H  0.32840719  0.92861072  0.35893090     0.08250
H1124       H  0.33839418  0.86468163  0.36360674     0.07080
N1125       N  0.39690052  0.87800167  0.19704560    -0.27310
N1126       N  0.40506639  0.89321526  0.18169051    -0.35170
C1127       C  0.41503438  0.88438022  0.16890621     0.01030
C1128       C  0.41298402  0.86249309  0.17650268     0.07060
C1129       C  0.40136296  0.85891804  0.19436324    -0.06040
H1130       H  0.42279131  0.89302949  0.15494848     0.07730
H1131       H  0.39632676  0.84351546  0.20456430     0.08930
Cu1132     Cu  0.40204264  0.92505939  0.17826338     0.44170
Cu1133     Cu  0.38030603  0.88436708  0.22079009     0.41990
Cu1134     Cu  0.37350412  0.94017492  0.21671929     0.43880
N1135       N  0.39889877  0.95705846  0.17797969    -0.34690
N1136       N  0.38851975  0.96282144  0.19224837    -0.28950
C1137       C  0.39133206  0.98580120  0.18855811    -0.05050
C1138       C  0.40403504  0.99481109  0.17107544     0.07170
C1139       C  0.40844078  0.97607867  0.16473223     0.00960
H1140       H  0.38536309  0.99558645  0.19817759     0.08620
H1141       H  0.41878421  0.97672874  0.15184637     0.07690
N1142       N  0.36436121  0.91743081  0.24108068    -0.36140
N1143       N  0.36692309  0.89738940  0.24271095    -0.28320
C1144       C  0.36136944  0.88859493  0.26093937    -0.03560
C1145       C  0.35529360  0.90400883  0.27132611     0.05050
C1146       C  0.35715738  0.92191610  0.25816277     0.03140
H1147       H  0.36282257  0.87287986  0.26642157     0.08250
H1148       H  0.35398263  0.93742624  0.26073334     0.07080
O1149       O  0.28627279  0.48115333  0.45360715    -0.72960
O1150       O  0.27065155  0.52812397  0.48234413    -0.73940
O1151       O  0.31392966  0.52243321  0.48016111    -0.62560
O1152       O  0.24312270  0.98683347  0.45574149    -0.70970
O1153       O  0.22714466  0.95918124  0.48029614    -0.70520
O1154       O  0.29802017  0.99489978  0.50478810    -0.61780
O1155       O  0.25473667  0.00042009  0.50688422    -0.74290
O1156       O  0.27047349  0.95353636  0.47820205    -0.73070
Cu1157     Cu  0.27908763  0.50564653  0.46713350     1.04560
Cu1158     Cu  0.26200609  0.97599808  0.49337866     1.04330
C1159       C  0.28103524  0.96001623  0.46153427     0.93240
C1160       C  0.25998084  0.52156626  0.49897594     0.92380
C1161       C  0.31721163  0.51430063  0.49617234     0.84520
C1162       C  0.22391006  0.96740148  0.46430311     0.90790
N1163       N  0.23811249  0.55410104  0.53002194    -0.27310
N1164       N  0.24507626  0.56879226  0.51442238    -0.35170
C1165       C  0.25441766  0.55978234  0.50124342     0.01030
C1166       C  0.25316455  0.03830156  0.50885375     0.07060
C1167       C  0.24270402  0.03516278  0.52711499    -0.06040
H1168       H  0.26114867  0.56799665  0.48702876     0.07730
H1169       H  0.23855009  0.02015390  0.53745043     0.08930
Cu1170     Cu  0.24115028  0.60004427  0.51127474     0.44170
Cu1171     Cu  0.22296824  0.56092151  0.55441726     0.41990
Cu1172     Cu  0.21535238  0.61614056  0.55120259     0.43880
N1173       N  0.23738512  0.63159074  0.51136614    -0.34690
N1174       N  0.22797978  0.63768698  0.52611407    -0.28950
C1175       C  0.23048933  0.66053862  0.52251683    -0.05050
C1176       C  0.24201933  0.66912123  0.50462160     0.07170
C1177       C  0.24602421  0.65027495  0.49792337     0.00960
H1178       H  0.22546700  0.67070407  0.53256091     0.08620
H1179       H  0.25576273  0.65076223  0.48473523     0.07690
N1180       N  0.20831222  0.59427178  0.57577555    -0.36140
N1181       N  0.21101285  0.57428697  0.57704455    -0.28320
C1182       C  0.20684225  0.56592718  0.59539206    -0.03560
C1183       C  0.20132870  0.58146316  0.60619194     0.05050
C1184       C  0.20245526  0.59920243  0.59323615     0.03140
H1185       H  0.20908070  0.55059081  0.60058364     0.08250
H1186       H  0.19989738  0.61502875  0.59632769     0.07080
N1187       N  0.14420294  0.60642780  0.76262775    -0.27310
N1188       N  0.13545506  0.59086946  0.77778997    -0.35170
C1189       C  0.12540111  0.59967815  0.79052082     0.01030
C1190       C  0.12798778  0.62188909  0.78307668     0.07060
C1191       C  0.14001357  0.62568457  0.76536863    -0.06040
H1192       H  0.11725117  0.59080596  0.80435342     0.07730
H1193       H  0.14558328  0.64139570  0.75533886     0.08930
Cu1194     Cu  0.13791263  0.55865130  0.78104318     0.44170
Cu1195     Cu  0.16133495  0.60040124  0.73909946     0.41990
Cu1196     Cu  0.16692858  0.54384738  0.74271479     0.43880
N1197       N  0.14075121  0.52645343  0.78117182    -0.34690
N1198       N  0.15127659  0.52079286  0.76694597    -0.28950
C1199       C  0.14837703  0.49775693  0.77057187    -0.05050
C1200       C  0.13547826  0.48860945  0.78797353     0.07170
C1201       C  0.13103269  0.50731181  0.79432891     0.00960
H1202       H  0.15453129  0.48808659  0.76100107     0.08620
H1203       H  0.12063348  0.50661061  0.80719646     0.07690
N1204       N  0.17712376  0.56733469  0.71867318    -0.36140
N1205       N  0.17505175  0.58769541  0.71722798    -0.28320
C1206       C  0.18080816  0.59675010  0.69907009    -0.03560
C1207       C  0.18671763  0.58129064  0.68856537     0.05050
C1208       C  0.18420203  0.56289515  0.70152546     0.03140
H1209       H  0.17911134  0.61235361  0.69370749     0.08250
H1210       H  0.18633521  0.54676922  0.69857019     0.07080
O1211       O  0.12639741  0.65988689  0.78498431    -0.72960
O1212       O  0.11017722  0.70646033  0.81403703    -0.73940
O1213       O  0.15359693  0.70098110  0.81172825    -0.62560
O1214       O  0.08299289  0.66538518  0.78703827    -0.70970
O1215       O  0.06682251  0.63758682  0.81150012    -0.70520
O1216       O  0.13751637  0.67289948  0.83602408    -0.61780
O1217       O  0.09434209  0.67842952  0.83837265    -0.74290
O1218       O  0.11002591  0.63186783  0.80931302    -0.73070
Cu1219     Cu  0.11887002  0.68420170  0.79860235     1.04560
Cu1220     Cu  0.10158036  0.65418629  0.82461616     1.04330
C1221       C  0.12100368  0.63861845  0.79280349     0.93240
C1222       C  0.09960177  0.69970499  0.83070694     0.92380
C1223       C  0.15674372  0.69251321  0.82761600     0.84520
C1224       C  0.06372074  0.64589434  0.79550575     0.90790
C1225       C  0.19767806  0.58115220  0.62728651    -0.05480
C1226       C  0.20636270  0.60464440  0.63700639    -0.32910
C1227       C  0.20312689  0.60509173  0.65693868     0.36340
C1228       C  0.19104167  0.58174740  0.66753992    -0.05840
C1229       C  0.18246901  0.55827557  0.65781772    -0.32810
C1230       C  0.18573057  0.55783468  0.63789862     0.36240
H1231       H  0.21609008  0.62287694  0.62919601     0.16610
O1232       O  0.21292338  0.62855940  0.66599728    -0.60310
H1233       H  0.17264647  0.54001091  0.66558189     0.16630
O1234       O  0.17591230  0.53436167  0.62884543    -0.60410
H1235       H  0.18800252  0.52883936  0.63215435     0.43620
H1236       H  0.20100656  0.63422849  0.66249980     0.43580
C1237       C  0.34018642  0.89864674  0.33233904    -0.05480
C1238       C  0.35207089  0.92279616  0.32300385    -0.32910
C1239       C  0.35690557  0.92489208  0.30316756     0.36340
C1240       C  0.34979233  0.90251659  0.29223924    -0.05840
C1241       C  0.33773642  0.87833183  0.30155766    -0.32810
C1242       C  0.33292265  0.87624572  0.32140609     0.36240
H1243       H  0.35815894  0.94030200  0.33116766     0.16610
O1244       O  0.36993253  0.94910843  0.29488612    -0.60310
H1245       H  0.33172734  0.86084067  0.29339940     0.16630
O1246       O  0.31997329  0.85206134  0.32974617    -0.60410
H1247       H  0.33280035  0.84688897  0.33022588     0.43620
H1248       H  0.35704879  0.95419450  0.29420689     0.43580
C1249       C  0.44064207  0.57873144  0.62472406    -0.05480
C1250       C  0.45454765  0.60278266  0.63432581    -0.32910
C1251       C  0.45587402  0.60405704  0.65445586     0.36340
C1252       C  0.44342150  0.58099531  0.66544597    -0.05840
C1253       C  0.42961703  0.55695081  0.65582530    -0.32810
C1254       C  0.42827836  0.55568159  0.63570639     0.36240
H1255       H  0.46395132  0.62079344  0.62625121     0.16610
O1256       O  0.46893638  0.62799796  0.66316443    -0.60310
H1257       H  0.42021143  0.53892364  0.66387597     0.16630
O1258       O  0.41522117  0.53174571  0.62698872    -0.60410
H1259       H  0.42864266  0.52770349  0.62443532     0.43620
H1260       H  0.45554651  0.63211228  0.66561549     0.43580
C1261       C  0.43831748  0.82413730  0.62661476    -0.05480
C1262       C  0.44748286  0.81317006  0.63947096    -0.32910
C1263       C  0.45035352  0.81935736  0.65913016     0.36340
C1264       C  0.44402865  0.83685917  0.66631984    -0.05840
C1265       C  0.43494182  0.84789208  0.65344919    -0.32810
C1266       C  0.43206072  0.84169212  0.63378840     0.36240
H1267       H  0.45195741  0.79926927  0.63436765     0.16610
O1268       O  0.45803938  0.80711400  0.67130932    -0.60310
H1269       H  0.43043535  0.86176741  0.65855691     0.16630
O1270       O  0.42433551  0.85388924  0.62159481    -0.60410
H1271       H  0.40551433  0.84583429  0.62422108     0.43620
H1272       H  0.47687988  0.81521588  0.66873652     0.43580
C1273       C  0.10285637  0.65764314  0.33303809    -0.05480
C1274       C  0.07778573  0.64494312  0.32503335    -0.32910
C1275       C  0.07350957  0.63720000  0.30568741     0.36340
C1276       C  0.09458229  0.64241140  0.29377246    -0.05840
C1277       C  0.11962741  0.65500207  0.30180624    -0.32810
C1278       C  0.12390184  0.66272685  0.32114542     0.36240
H1279       H  0.06125805  0.64056276  0.33388527     0.16610
O1280       O  0.04852877  0.62409097  0.29878061    -0.60310
H1281       H  0.13618437  0.65946832  0.29295967     0.16630
O1282       O  0.14889425  0.67585489  0.32802912    -0.60410
H1283       H  0.15556033  0.69454107  0.32623452     0.43620
H1284       H  0.04191664  0.60539734  0.30043953     0.43580
C1285       C  0.10135363  0.90632356  0.33525217    -0.05480
C1286       C  0.12435594  0.91818115  0.32427257    -0.32910
C1287       C  0.12354232  0.91777509  0.30412177     0.36340
C1288       C  0.09941192  0.90561300  0.29449198    -0.05840
C1289       C  0.07641561  0.89382534  0.30546536    -0.32810
C1290       C  0.07722684  0.89426412  0.32561340     0.36240
H1291       H  0.14312091  0.92727698  0.33128637     0.16610
O1292       O  0.14648899  0.92885171  0.29405289    -0.60310
H1293       H  0.05765546  0.88470038  0.29843680     0.16630
O1294       O  0.05427315  0.88323973  0.33566664    -0.60410
H1295       H  0.05164007  0.89765185  0.33806816     0.43620
H1296       H  0.14922721  0.91449682  0.29171499     0.43580
C1297       C  0.02904722  0.74799312  0.96042926    -0.05480
C1298       C  0.51628585  0.72243145  0.96752675    -0.32910
C1299       C  0.50824608  0.71680931  0.98678736     0.36340
C1300       C  0.01317930  0.73697707  0.99955350    -0.05840
C1301       C  0.02595166  0.76254352  0.99245303    -0.32810
C1302       C  0.03397270  0.76816031  0.97318682     0.36240
H1303       H  0.51201867  0.70653713  0.95801864     0.16610
O1304       O  0.49505089  0.69140331  0.99275636    -0.60310
H1305       H  0.03022772  0.77844406  0.00195605     0.16630
O1306       O  0.04713755  0.79355780  0.96719718    -0.60410
H1307       H  0.06583199  0.80013553  0.96891234     0.43620
H1308       H  0.47636361  0.68484409  0.99102218     0.43580
C1309       C  0.26734240  0.98902053  0.00053526    -0.05480
C1310       C  0.29119980  0.49911693  0.99091202    -0.32910
C1311       C  0.29232978  0.49885506  0.97081930     0.36340
C1312       C  0.26929810  0.98807593  0.95994346    -0.05840
C1313       C  0.24542634  0.97790603  0.96956660    -0.32810
C1314       C  0.24430062  0.97818042  0.98966594     0.36240
H1315       H  0.30922043  0.50791655  0.99893204     0.16610
O1316       O  0.31614189  0.50972954  0.96201399    -0.60310
H1317       H  0.22741889  0.96916130  0.96153361     0.16630
O1318       O  0.22050769  0.96738977  0.99848694    -0.60410
H1319       H  0.21469201  0.94906533  0.00107317     0.43620
H1320       H  0.32193545  0.52806149  0.95948861     0.43580
C1321       C  0.27096099  0.74623847  0.95894098    -0.05480
C1322       C  0.29494575  0.75822571  0.96854638    -0.32910
C1323       C  0.29614979  0.75465972  0.98834890     0.36340
C1324       C  0.27303070  0.73912966  0.99909517    -0.05840
C1325       C  0.24904986  0.72718743  0.98948937    -0.32810
C1326       C  0.24784618  0.73075106  0.96969507     0.36240
H1327       H  0.31296261  0.77000310  0.96060868     0.16610
O1328       O  0.32012733  0.76599082  0.99685996    -0.60310
H1329       H  0.23102317  0.71541807  0.99741613     0.16630
O1330       O  0.22386402  0.71944426  0.96119395    -0.60410
H1331       H  0.21950311  0.73287406  0.96165986     0.43620
H1332       H  0.32454097  0.75260138  0.99635445     0.43580
N1333       N  0.73520876  0.16973443  0.09784864    -0.27310
N1334       N  0.74831410  0.17933302  0.11408096    -0.35170
C1335       C  0.73881244  0.16049091  0.12743857     0.01030
C1336       C  0.71870650  0.13780697  0.11936672     0.07060
C1337       C  0.71676094  0.14432977  0.10058468    -0.06040
H1338       H  0.74682804  0.16287566  0.14173416     0.07730
H1339       H  0.70385743  0.13130916  0.08948598     0.08930
Cu1340     Cu  0.78128142  0.21616647  0.11709873     0.44170
Cu1341     Cu  0.74584258  0.19145231  0.07239247     0.41990
Cu1342     Cu  0.80749227  0.25583821  0.07558386     0.43880
N1343       N  0.81811056  0.24959316  0.11652327    -0.34690
N1344       N  0.82806477  0.26443783  0.10109103    -0.28950
C1345       C  0.85331380  0.28266011  0.10436212    -0.05050
C1346       C  0.85947881  0.27883510  0.12270374     0.07170
C1347       C  0.83668512  0.25780483  0.13001771     0.00960
H1348       H  0.86652707  0.29660856  0.09379123     0.08620
H1349       H  0.83413310  0.24826751  0.14371121     0.07690
N1350       N  0.78547423  0.24054072  0.05080285    -0.36140
N1351       N  0.76347985  0.21747650  0.04941950    -0.28320
C1352       C  0.75553630  0.21361285  0.03094294    -0.03560
C1353       C  0.77349293  0.23513105  0.02016784     0.05050
C1354       C  0.79204946  0.25183487  0.03336093     0.03140
H1355       H  0.73831497  0.19608347  0.02565439     0.08250
H1356       H  0.80919190  0.27088714  0.03062615     0.07080
N1357       N  0.80703341  0.31521763  0.86002575    -0.27310
N1358       N  0.79369557  0.30553729  0.84389149    -0.35170
C1359       C  0.80276964  0.32439919  0.83056445     0.01030
C1360       C  0.82283579  0.34717034  0.83856354     0.07060
C1361       C  0.82520317  0.34068333  0.85725498    -0.06040
H1362       H  0.79450832  0.32194699  0.81635344     0.07730
H1363       H  0.83822454  0.35375720  0.86828266     0.08930
Cu1364     Cu  0.76099095  0.26850659  0.84104834     0.44170
Cu1365     Cu  0.79712472  0.29356135  0.88548250     0.41990
Cu1366     Cu  0.73585203  0.22890800  0.88268185     0.43880
N1367       N  0.72428171  0.23495997  0.84198400    -0.34690
N1368       N  0.71469290  0.22016073  0.85746834    -0.28950
C1369       C  0.68935640  0.20194831  0.85450357    -0.05050
C1370       C  0.68276328  0.20573731  0.83630730     0.07170
C1371       C  0.70538995  0.22672154  0.82875795     0.00960
H1372       H  0.67638315  0.18806407  0.86520293     0.08620
H1373       H  0.70760947  0.23625190  0.81511421     0.07690
N1374       N  0.75820590  0.24441472  0.90727872    -0.36140
N1375       N  0.78007409  0.26759866  0.90855597    -0.28320
C1376       C  0.78818213  0.27162072  0.92700027    -0.03560
C1377       C  0.77044140  0.25008078  0.93785357     0.05050
C1378       C  0.75187316  0.23319849  0.92474402     0.03140
H1379       H  0.80531249  0.28928560  0.93222643     0.08250
H1380       H  0.73483733  0.21410372  0.92756446     0.07080
O1381       O  0.79800359  0.25945927  0.50588329    -0.72960
O1382       O  0.72939791  0.23368578  0.48003258    -0.73940
O1383       O  0.74915412  0.21132766  0.50475067    -0.62560
O1384       O  0.77802777  0.28159271  0.48120461    -0.70970
O1385       O  0.79103601  0.26969086  0.45559864    -0.70520
O1386       O  0.76223189  0.19945932  0.47916636    -0.61780
O1387       O  0.74224335  0.22155702  0.45447392    -0.74290
O1388       O  0.81082679  0.24736552  0.48029135    -0.73070
Cu1389     Cu  0.76318044  0.24692822  0.49386415     1.04560
Cu1390     Cu  0.77704785  0.23410511  0.46649033     1.04330
C1391       C  0.81516149  0.25727222  0.49715164     0.93240
C1392       C  0.72508640  0.22377236  0.46317263     0.92380
C1393       C  0.75136925  0.19441214  0.49571452     0.84520
C1394       C  0.78885294  0.28662157  0.46464349     0.90790
O1395       O  0.63794806  0.43864552  0.83851090    -0.72960
O1396       O  0.56793483  0.41019383  0.81412079    -0.73940
O1397       O  0.58960301  0.38992401  0.83915622    -0.62560
O1398       O  0.61598466  0.45878481  0.81382280    -0.70970
O1399       O  0.62873454  0.44647329  0.78830934    -0.70520
O1400       O  0.60200673  0.37735234  0.81359704    -0.61780
O1401       O  0.58049719  0.39770306  0.78860155    -0.74290
O1402       O  0.65009765  0.42582723  0.81294189    -0.73070
Cu1403     Cu  0.60240739  0.42481615  0.82729871     1.04560
Cu1404     Cu  0.61574710  0.41137602  0.79997682     1.04330
C1405       C  0.65500528  0.43655303  0.82950527     0.93240
C1406       C  0.56333634  0.39974943  0.79743081     0.92380
C1407       C  0.59189153  0.37287346  0.83042028     0.84520
C1408       C  0.62643359  0.46348383  0.79713586     0.90790
N1409       N  0.74139789  0.52900025  0.09741670    -0.27310
N1410       N  0.75697034  0.53735836  0.11254731    -0.35170
C1411       C  0.74867344  0.54790771  0.12527208     0.01030
C1412       C  0.72679502  0.54604375  0.11780910     0.07060
C1413       C  0.72264887  0.53391961  0.10014240    -0.06040
H1414       H  0.75772564  0.05601787  0.13904880     0.07730
H1415       H  0.70712933  0.52892523  0.09006959     0.08930
Cu1416     Cu  0.78874918  0.53409956  0.11538488     0.44170
Cu1417     Cu  0.74703880  0.51196018  0.07375275     0.41990
Cu1418     Cu  0.80360341  0.50625725  0.07600518     0.43880
N1419       N  0.82103305  0.53141558  0.11474251    -0.34690
N1420       N  0.82673786  0.52137288  0.10020025    -0.28950
C1421       C  0.85007520  0.52470251  0.10338764    -0.05050
C1422       C  0.85936278  0.53740393  0.12081325     0.07170
C1423       C  0.84043773  0.54124841  0.12765033     0.00960
H1424       H  0.85990373  0.51912728  0.09345727     0.08620
H1425       H  0.84120371  0.05144475  0.14063988     0.07690
N1426       N  0.78028765  0.49747925  0.05204918    -0.36140
N1427       N  0.75986702  0.49954474  0.05116535    -0.28320
C1428       C  0.75122020  0.49545455  0.03292271    -0.03560
C1429       C  0.76702906  0.49069205  0.02176164     0.05050
C1430       C  0.78518696  0.49207143  0.03441818     0.03140
H1431       H  0.73582440  0.49777346  0.02797401     0.08250
H1432       H  0.80159880  0.49057281  0.03094393     0.07080
N1433       N  0.79806971  0.45369434  0.86167749    -0.27310
N1434       N  0.78295297  0.44608707  0.84630327    -0.35170
C1435       C  0.79181099  0.43641541  0.83326608     0.01030
C1436       C  0.81358390  0.43809407  0.84078232     0.07060
C1437       C  0.81707939  0.44918569  0.85880147    -0.06040
H1438       H  0.78317390  0.42896707  0.81927158     0.07730
H1439       H  0.83226604  0.45365181  0.86905388     0.08930
Cu1440     Cu  0.75097262  0.44910264  0.84362367     0.44170
Cu1441     Cu  0.79138130  0.46896402  0.88593463     0.41990
Cu1442     Cu  0.73472814  0.47440280  0.88402599     0.43880
N1443       N  0.71861498  0.45171663  0.84444070    -0.34690
N1444       N  0.71250183  0.46092524  0.85931151    -0.28950
C1445       C  0.68925233  0.45777312  0.85609180    -0.05050
C1446       C  0.68041301  0.44603408  0.83831399     0.07170
C1447       C  0.69952888  0.44257840  0.83129740     0.00960
H1448       H  0.67910399  0.46266778  0.86626598     0.08620
H1449       H  0.69906532  0.43303499  0.81802425     0.07690
N1450       N  0.75713895  0.48156338  0.90827851    -0.36140
N1451       N  0.77763092  0.47960805  0.90901899    -0.28320
C1452       C  0.78585115  0.98276536  0.92733674    -0.03560
C1453       C  0.76969851  0.98682437  0.93869592     0.05050
C1454       C  0.75175433  0.98596299  0.92608578     0.03140
H1455       H  0.80132961  0.98048084  0.93212309     0.08250
H1456       H  0.73529656  0.98734511  0.92965307     0.07080
N1457       N  0.46388274  0.25321336  0.09709274    -0.27310
N1458       N  0.45642881  0.23780024  0.11230000    -0.35170
C1459       C  0.94745102  0.24666962  0.12590852     0.01030
C1460       C  0.94944893  0.26882936  0.11897770     0.07060
C1461       C  0.45996284  0.27248105  0.10067109    -0.06040
H1462       H  0.94030577  0.23779459  0.13989603     0.07730
H1463       H  0.46450916  0.28800754  0.09072899     0.08930
Cu1464     Cu  0.45911517  0.20566819  0.11401001     0.44170
Cu1465     Cu  0.47878047  0.24672616  0.07234292     0.41990
Cu1466     Cu  0.48338274  0.18929608  0.07270378     0.43880
N1467       N  0.46165317  0.17341025  0.11283717    -0.34690
N1468       N  0.47026407  0.16700382  0.09773832    -0.28950
C1469       C  0.46754676  0.14399209  0.10126350    -0.05050
C1470       C  0.95674265  0.13570345  0.11944825     0.07170
C1471       C  0.95335332  0.15485418  0.12634919     0.00960
H1472       H  0.47228295  0.13369460  0.09112263     0.08620
H1473       H  0.94456439  0.15485715  0.13990322     0.07690
N1474       N  0.49321730  0.21419812  0.04926680    -0.36140
N1475       N  0.49154442  0.23487428  0.04918222    -0.28320
C1476       C  0.49859193  0.24611429  0.03171056    -0.03560
C1477       C  0.50487788  0.23181601  0.02009290     0.05050
C1478       C  0.50136621  0.21178744  0.03182434     0.03140
H1479       H  0.49852406  0.26314572  0.02765283     0.08250
H1480       H  0.50459409  0.19657737  0.02810884     0.07080
N1481       N  0.57856668  0.23191978  0.86295679    -0.27310
N1482       N  0.58570337  0.24716268  0.84766986    -0.35170
C1483       C  0.59469630  0.23833499  0.83404404     0.01030
C1484       C  0.59302996  0.21636859  0.84104456     0.07060
C1485       C  0.58270395  0.21279255  0.85941265    -0.06040
H1486       H  0.60152377  0.24704171  0.81997137     0.07730
H1487       H  0.57834789  0.19736126  0.86939303     0.08930
Cu1488     Cu  0.58235059  0.27885832  0.84581677     0.44170
Cu1489     Cu  0.56361614  0.23835909  0.88769698     0.41990
Cu1490     Cu  0.55801264  0.29520488  0.88709119     0.43880
N1491       N  0.57915910  0.31070797  0.84678349    -0.34690
N1492       N  0.57054013  0.31713081  0.86186718    -0.28950
C1493       C  0.57289284  0.33994261  0.85819477    -0.05050
C1494       C  0.58346849  0.34807443  0.83993198     0.07170
C1495       C  0.58709857  0.32904319  0.83313773     0.00960
H1496       H  0.56812643  0.35025145  0.86830056     0.08620
H1497       H  0.59587323  0.32901726  0.81958273     0.07690
N1498       N  0.54870685  0.27060602  0.91066033    -0.36140
N1499       N  0.55069697  0.25011953  0.91081475    -0.28320
C1500       C  0.54382390  0.23897774  0.92832454    -0.03560
C1501       C  0.53733250  0.25314869  0.93989346     0.05050
C1502       C  0.54054244  0.27300039  0.92810318     0.03140
H1503       H  0.54412682  0.22209214  0.93243740     0.08250
H1504       H  0.53706733  0.28805453  0.93177979     0.07080
O1505       O  0.95028455  0.09369528  0.12005421    -0.72960
O1506       O  0.92371685  0.02470082  0.14527551    -0.73940
O1507       O  0.90188100  0.04492280  0.12058756    -0.62560
O1508       O  0.97182382  0.07326362  0.14507555    -0.70970
O1509       O  0.95916322  0.08556218  0.17064864    -0.70520
O1510       O  0.88975187  0.05784731  0.14610604    -0.61780
O1511       O  0.91083134  0.03695211  0.17074492    -0.74290
O1512       O  0.93794859  0.10624802  0.14566225    -0.73070
Cu1513     Cu  0.93739059  0.05872586  0.13184697     1.04560
Cu1514     Cu  0.92400943  0.07211966  0.15917084     1.04330
C1515       C  0.94810005  0.11077730  0.12885114     0.93240
C1516       C  0.91315459  0.51995491  0.16192426     0.92380
C1517       C  0.88482859  0.04704206  0.12957091     0.84520
C1518       C  0.97634037  0.08353341  0.16182532     0.90790
N1519       N  0.66533739  0.43957118  0.43489776    -0.27310
N1520       N  0.65590874  0.42551540  0.45076572    -0.35170
C1521       C  0.67509691  0.43386101  0.46374763     0.01030
C1522       C  0.69777789  0.95415083  0.45572152     0.07060
C1523       C  0.69090787  0.95742741  0.43744197    -0.06040
H1524       H  0.67293558  0.42494398  0.47766070     0.07730
H1525       H  0.70377870  0.97083877  0.42647637     0.08930
Cu1526     Cu  0.61875686  0.39278785  0.45319154     0.44170
Cu1527     Cu  0.64339827  0.43084682  0.40987407     0.41990
Cu1528     Cu  0.57934214  0.36898182  0.41094002     0.43880
N1529       N  0.58527136  0.35609997  0.45140207    -0.34690
N1530       N  0.57065980  0.34700888  0.43579793    -0.28950
C1531       C  0.05260288  0.32152283  0.43830409    -0.05050
C1532       C  0.05630449  0.31432696  0.45630334     0.07170
C1533       C  0.57705263  0.33674262  0.46422271     0.00960
H1534       H  0.03890690  0.30888421  0.42740879     0.08620
H1535       H  0.58648607  0.33853231  0.47782902     0.07690
N1536       N  0.59533717  0.39264651  0.38691449    -0.36140
N1537       N  0.61838975  0.41476059  0.38640847    -0.28320
C1538       C  0.62361273  0.42350048  0.36814779    -0.03560
C1539       C  0.60288223  0.40610779  0.35657817     0.05050
C1540       C  0.58534713  0.38680983  0.36904631     0.03140
H1541       H  0.64160612  0.44082573  0.36356202     0.08250
H1542       H  0.56735893  0.36893690  0.36531943     0.07080
N1543       N  0.53602131  0.36842354  0.19462434    -0.27310
N1544       N  0.54550516  0.38206595  0.17858650    -0.35170
C1545       C  0.52650319  0.37303541  0.16539781     0.01030
C1546       C  0.00386993  0.35272824  0.17344816     0.07060
C1547       C  0.01057608  0.35013612  0.19198043    -0.06040
H1548       H  0.52870223  0.38158750  0.15132551     0.07730
H1549       H  0.99763616  0.33699912  0.20304057     0.08930
Cu1550     Cu  0.58223733  0.41534928  0.17607916     0.44170
Cu1551     Cu  0.55767270  0.37848722  0.21989032     0.41990
Cu1552     Cu  0.62105915  0.44137965  0.21833297     0.43880
N1553       N  0.61507933  0.45252334  0.17737489    -0.34690
N1554       N  0.62955382  0.46243134  0.19297596    -0.28950
C1555       C  0.64743388  0.98784875  0.18993458    -0.05050
C1556       C  0.64373817  0.99414559  0.17158738     0.07170
C1557       C  0.62317170  0.47127231  0.16403395     0.00960
H1558       H  0.66113018  0.00101970  0.20062009     0.08620
H1559       H  0.61392636  0.46870404  0.15021310     0.07690
N1560       N  0.60525700  0.41824738  0.24266830    -0.36140
N1561       N  0.58246776  0.39584194  0.24333093    -0.28320
C1562       C  0.57733417  0.38752488  0.26169437    -0.03560
C1563       C  0.59784995  0.40547503  0.27316560     0.05050
C1564       C  0.61517206  0.42467021  0.26054656     0.03140
H1565       H  0.55957536  0.37003385  0.26639827     0.08250
H1566       H  0.63298116  0.44278990  0.26415400     0.07080
N1567       N  0.58406146  0.21000940  0.42837015    -0.27310
N1568       N  0.59943046  0.21787046  0.44361519    -0.35170
C1569       C  0.59052698  0.22725301  0.45685528     0.01030
C1570       C  0.56839726  0.22513237  0.44969265     0.07060
C1571       C  0.56478825  0.21409862  0.43158899    -0.06040
H1572       H  0.59921286  0.23451513  0.47086462     0.07730
H1573       H  0.54913069  0.20904761  0.42163947     0.08930
Cu1574     Cu  0.63128130  0.21473298  0.44634279     0.44170
Cu1575     Cu  0.59032192  0.19381147  0.40423605     0.41990
Cu1576     Cu  0.64683613  0.18759971  0.40694792     0.43880
N1577       N  0.66307064  0.21124988  0.44635241    -0.34690
N1578       N  0.66914704  0.20153119  0.43180384    -0.28950
C1579       C  0.69186511  0.20378294  0.43570474    -0.05050
C1580       C  0.70032624  0.21541047  0.45359949     0.07170
C1581       C  0.68156485  0.21978467  0.45993906     0.00960
H1582       H  0.70183324  0.19810685  0.42600528     0.08620
H1583       H  0.68182403  0.22939521  0.47311782     0.07690
N1584       N  0.62276106  0.17752912  0.38309838    -0.36140
N1585       N  0.60244507  0.17977209  0.38204289    -0.28320
C1586       C  0.59208327  0.17263377  0.36430502    -0.03560
C1587       C  0.60666325  0.16576710  0.35358249     0.05050
C1588       C  0.62583110  0.16895055  0.36609234     0.03140
H1589       H  0.57559579  0.17318363  0.35940779     0.08250
H1590       H  0.64101749  0.16537620  0.36316673     0.07080
N1591       N  0.61750940  0.09808497  0.19612862    -0.27310
N1592       N  0.60289031  0.09147551  0.18052531    -0.35170
C1593       C  0.61230961  0.08299664  0.16697943     0.01030
C1594       C  0.63402538  0.08446325  0.17432524     0.07060
C1595       C  0.63684997  0.09413732  0.19283793    -0.06040
H1596       H  0.60407050  0.07649651  0.15275790     0.07730
H1597       H  0.65178098  0.09796866  0.20314440     0.08930
Cu1598     Cu  0.57097284  0.09441735  0.17798787     0.44170
Cu1599     Cu  0.60974622  0.11166794  0.22106855     0.41990
Cu1600     Cu  0.55286824  0.11709526  0.21892064     0.43880
N1601       N  0.53879325  0.09713813  0.17836109    -0.34690
N1602       N  0.53186789  0.10532842  0.19340533    -0.28950
C1603       C  0.50898446  0.10272606  0.18958216    -0.05050
C1604       C  0.50127447  0.09240117  0.17125389     0.07170
C1605       C  0.52065384  0.08918460  0.16455712     0.00960
H1606       H  0.49825436  0.10697848  0.19968505     0.08620
H1607       H  0.52098458  0.08057156  0.15101901     0.07690
N1608       N  0.57576703  0.12511203  0.24322205    -0.36140
N1609       N  0.59625903  0.12314247  0.24404907    -0.28320
C1610       C  0.60604972  0.12906774  0.26199869    -0.03560
C1611       C  0.59093312  0.13488845  0.27309810     0.05050
C1612       C  0.57200421  0.13230646  0.26060060     0.03140
H1613       H  0.62269785  0.12867188  0.26669396     0.08250
H1614       H  0.55669078  0.13562827  0.26373087     0.07080
O1615       O  0.67195399  0.08292168  0.17199506    -0.72960
O1616       O  0.71770571  0.06534979  0.14363055    -0.73940
O1617       O  0.71285872  0.10913625  0.14473576    -0.62560
O1618       O  0.67678442  0.03929419  0.17069233    -0.70970
O1619       O  0.64854378  0.52283288  0.14653770    -0.70520
O1620       O  0.68501357  0.09268914  0.12034922    -0.61780
O1621       O  0.68945921  0.04869243  0.11947489    -0.74290
O1622       O  0.64389571  0.06679313  0.14771142    -0.73070
Cu1623     Cu  0.69584717  0.07480883  0.15857257     1.04560
Cu1624     Cu  0.66569295  0.05717211  0.13268870     1.04330
C1625       C  0.65071710  0.07768668  0.16424806     0.93240
C1626       C  0.71063572  0.05388017  0.12732560     0.92380
C1627       C  0.70477151  0.11198484  0.12854123     0.84520
C1628       C  0.65701560  0.01997339  0.16253853     0.90790
O1629       O  0.51076289  0.25585783  0.50688956    -0.72960
O1630       O  0.55807529  0.24174275  0.47673209    -0.73940
O1631       O  0.55178436  0.28449843  0.48022458    -0.62560
O1632       O  0.51702073  0.21312818  0.50341306    -0.70970
O1633       O  0.98908961  0.19756016  0.47904204    -0.70520
O1634       O  0.52391489  0.26896959  0.45581583    -0.61780
O1635       O  0.53011939  0.22617533  0.45237913    -0.74290
O1636       O  0.98281255  0.24034626  0.48253345    -0.73070
Cu1637     Cu  0.53542174  0.24937320  0.49264165     1.04560
Cu1638     Cu  0.00546947  0.23270160  0.46661058     1.04330
C1639       C  0.48940391  0.25055679  0.49929950     0.93240
C1640       C  0.55146506  0.23146559  0.45998998     0.92380
C1641       C  0.54331246  0.28803275  0.46449110     0.84520
C1642       C  0.99761953  0.19404954  0.49475672     0.90790
N1643       N  0.95662822  0.27152119  0.53120453    -0.27310
N1644       N  0.94123582  0.26373050  0.51597531    -0.35170
C1645       C  0.95021251  0.25456047  0.50261520     0.01030
C1646       C  0.47241978  0.25675429  0.50968341     0.07060
C1647       C  0.47599050  0.26760190  0.52785635    -0.06040
H1648       H  0.94151118  0.24737689  0.48859923     0.07730
H1649       H  0.49167882  0.27263567  0.53777025     0.08930
Cu1650     Cu  0.90925598  0.26669625  0.51347453     0.44170
Cu1651     Cu  0.95031865  0.28748916  0.55546874     0.41990
Cu1652     Cu  0.89405820  0.29412275  0.55293963     0.43880
N1653       N  0.87736587  0.27001873  0.51369848    -0.34690
N1654       N  0.87140667  0.27981710  0.52826358    -0.28950
C1655       C  0.84860492  0.27745443  0.52448718    -0.05050
C1656       C  0.83997415  0.26567748  0.50665520     0.07170
C1657       C  0.85871688  0.26132838  0.50022586     0.00960
H1658       H  0.83872702  0.28320574  0.53421356     0.08620
H1659       H  0.85836673  0.25166712  0.48704914     0.07690
N1660       N  0.91854843  0.30463103  0.57657695    -0.36140
N1661       N  0.93858070  0.30192861  0.57764901    -0.28320
C1662       C  0.94899272  0.30899014  0.59537797    -0.03560
C1663       C  0.93498570  0.31666537  0.60596602     0.05050
C1664       C  0.91581428  0.31358375  0.59352793     0.03140
H1665       H  0.96535606  0.30822255  0.60027742     0.08250
H1666       H  0.90020682  0.31643478  0.59675644     0.07080
N1667       N  0.92305989  0.38635219  0.76235351    -0.27310
N1668       N  0.93782250  0.39325638  0.77789615    -0.35170
C1669       C  0.92878146  0.40236221  0.79124257     0.01030
C1670       C  0.90715337  0.40100976  0.78384578     0.07060
C1671       C  0.90399100  0.39074823  0.76549640    -0.06040
H1672       H  0.93710845  0.40903732  0.80542154     0.07730
H1673       H  0.88889090  0.38662519  0.75526236     0.08930
Cu1674     Cu  0.96918734  0.38952234  0.78079226     0.44170
Cu1675     Cu  0.93002071  0.37129919  0.73783990     0.41990
Cu1676     Cu  0.98572099  0.36394057  0.74094295     0.43880
N1677       N  0.00090380  0.38608439  0.78084669    -0.34690
N1678       N  0.00734737  0.37692208  0.76614466    -0.28950
C1679       C  0.53016998  0.37943079  0.77004785    -0.05050
C1680       C  0.53831381  0.39068250  0.78808346     0.07170
C1681       C  0.01926313  0.39454464  0.79452225     0.00960
H1682       H  0.54055096  0.37444324  0.76018231     0.08620
H1683       H  0.01933367  0.40396669  0.80775050     0.07690
N1684       N  0.96236650  0.35484342  0.71677743    -0.36140
N1685       N  0.94249616  0.35777403  0.71550638    -0.28320
C1686       C  0.93272383  0.35145025  0.69755677    -0.03560
C1687       C  0.94698680  0.34402207  0.68702890     0.05050
C1688       C  0.96564857  0.34649618  0.69973603     0.03140
H1689       H  0.91653500  0.35241735  0.69250506     0.08250
H1690       H  0.98121121  0.34351438  0.69669237     0.07080
O1691       O  0.89729772  0.41867730  0.81048549    -0.72960
O1692       O  0.85123827  0.43596289  0.83899861    -0.73940
O1693       O  0.85618558  0.39232012  0.83772575    -0.62560
O1694       O  0.89233159  0.46241347  0.81213990    -0.70970
O1695       O  0.86431090  0.44625262  0.78784069    -0.70520
O1696       O  0.82835039  0.37596289  0.81332802    -0.61780
O1697       O  0.82319132  0.41957673  0.81471049    -0.74290
O1698       O  0.86930151  0.40267440  0.78616065    -0.73070
Cu1699     Cu  0.87529365  0.42792505  0.82566172     1.04560
Cu1700     Cu  0.84527234  0.41049783  0.79968862     1.04330
C1701       C  0.89052044  0.40787590  0.79391118     0.93240
C1702       C  0.83005404  0.43074025  0.83112873     0.92380
C1703       C  0.83651268  0.37303550  0.82946856     0.84520
C1704       C  0.88395889  0.46549451  0.79618120     0.90790
N1705       N  0.87602978  0.04268443  0.52536579    -0.27310
N1706       N  0.88529104  0.05649015  0.50937445    -0.35170
C1707       C  0.86598611  0.04786962  0.49646927     0.01030
C1708       C  0.84340006  0.52766520  0.50466960     0.07060
C1709       C  0.85044795  0.52471999  0.52298019    -0.06040
H1710       H  0.86799772  0.05656028  0.48248179     0.07730
H1711       H  0.83769015  0.51148337  0.53406875     0.08930
Cu1712     Cu  0.92235811  0.08929481  0.50661988     0.44170
Cu1713     Cu  0.89820592  0.05192580  0.55030195     0.41990
Cu1714     Cu  0.96237872  0.11359195  0.54851984     0.43880
N1715       N  0.95586157  0.12602970  0.50807564    -0.34690
N1716       N  0.47071633  0.13524381  0.52355299    -0.28950
C1717       C  0.48871043  0.16070945  0.52092047    -0.05050
C1718       C  0.48472714  0.16778155  0.50297218     0.07170
C1719       C  0.46387193  0.14530441  0.49520292     0.00960
H1720       H  0.50254452  0.17342879  0.53171774     0.08620
H1721       H  0.45422580  0.14342457  0.48168371     0.07690
N1722       N  0.94644102  0.09065525  0.57286653    -0.36140
N1723       N  0.92339713  0.06855009  0.57360965    -0.28320
C1724       C  0.91820615  0.06033187  0.59199638    -0.03560
C1725       C  0.93891606  0.07813187  0.60340345     0.05050
C1726       C  0.95642467  0.09705307  0.59071542     0.03140
H1727       H  0.89996371  0.04348719  0.59678109     0.08250
H1728       H  0.47472099  0.11473224  0.59424371     0.07080
N1729       N  0.50550859  0.11746046  0.76569538    -0.27310
N1730       N  0.49598606  0.10350573  0.78159900    -0.35170
C1731       C  0.51500729  0.11219846  0.79475369     0.01030
C1732       C  0.53767442  0.13259380  0.78680255     0.07060
C1733       C  0.53097334  0.13559237  0.76838589    -0.06040
H1734       H  0.51279546  0.10336004  0.80870814     0.07730
H1735       H  0.54393050  0.14890343  0.75740898     0.08930
Cu1736     Cu  0.95913747  0.07028473  0.78386698     0.44170
Cu1737     Cu  0.98400894  0.10805423  0.74041622     0.41990
Cu1738     Cu  0.92045877  0.04541912  0.74145963     0.43880
N1739       N  0.92609243  0.03325324  0.78217716    -0.34690
N1740       N  0.91167557  0.02376327  0.76651160    -0.28950
C1741       C  0.89370317  0.49828889  0.76923533    -0.05050
C1742       C  0.89726546  0.49152046  0.78745007     0.07170
C1743       C  0.91785028  0.01417691  0.79525161     0.00960
H1744       H  0.88005916  0.48540294  0.75840979     0.08620
H1745       H  0.92703792  0.01636618  0.80904233     0.07690
N1746       N  0.93672341  0.06873446  0.71728274    -0.36140
N1747       N  0.95952980  0.09112386  0.71678964    -0.28320
C1748       C  0.96503406  0.09949426  0.69844381    -0.03560
C1749       C  0.94476919  0.08150738  0.68679542     0.05050
C1750       C  0.92719470  0.06233185  0.69931410     0.03140
H1751       H  0.48320362  0.11661237  0.69387955     0.08250
H1752       H  0.90915284  0.04448909  0.69560312     0.07080
O1753       O  0.94801017  0.30671757  0.12159014    -0.72960
O1754       O  0.93137052  0.35278522  0.15038568    -0.73940
O1755       O  0.97486029  0.34749416  0.14859844    -0.62560
O1756       O  0.90460724  0.31187629  0.12347733    -0.70970
O1757       O  0.88824635  0.28368435  0.14769577    -0.70520
O1758       O  0.95859425  0.31960384  0.17299981    -0.61780
O1759       O  0.91490531  0.32468368  0.17465928    -0.74290
O1760       O  0.93192963  0.27856139  0.14584115    -0.73070
Cu1761     Cu  0.94031486  0.33073273  0.13520827     1.04560
Cu1762     Cu  0.92283097  0.30060324  0.16114372     1.04330
C1763       C  0.94272818  0.28542822  0.12924984     0.92970
C1764       C  0.92022370  0.34592199  0.16683627     0.92380
C1765       C  0.97787691  0.33921676  0.16463493     0.84520
C1766       C  0.88530794  0.29215419  0.13172417     0.90790
N1767       N  0.80170584  0.42669245  0.43017889    -0.27310
N1768       N  0.79536409  0.41240650  0.44596125    -0.35170
C1769       C  0.78662875  0.42181607  0.45930729     0.01030
C1770       C  0.78764787  0.44314379  0.45161996     0.07060
C1771       C  0.79733521  0.44577598  0.43313849    -0.06040
H1772       H  0.78040238  0.41393387  0.47366120     0.07730
H1773       H  0.80101169  0.46047394  0.42265587     0.08930
Cu1774     Cu  0.79918089  0.38107183  0.44910413     0.44170
Cu1775     Cu  0.81555165  0.41904619  0.40541602     0.41990
Cu1776     Cu  0.82358464  0.36413477  0.40875741     0.43880
N1777       N  0.80281955  0.34943378  0.44896716    -0.34690
N1778       N  0.81179494  0.34309718  0.43407827    -0.28950
C1779       C  0.80928412  0.32024923  0.43767803    -0.05050
C1780       C  0.79818354  0.31189757  0.45571684     0.07170
C1781       C  0.79444403  0.33089010  0.46250323     0.00960
H1782       H  0.81392801  0.30988791  0.42752620     0.08620
H1783       H  0.78502122  0.33057679  0.47581509     0.07690
N1784       N  0.82938035  0.38514130  0.38391586    -0.36140
N1785       N  0.82644690  0.40497057  0.38257969    -0.28320
C1786       C  0.83022033  0.41301076  0.36416207    -0.03560
C1787       C  0.83551307  0.39731107  0.35336179     0.05050
C1788       C  0.83501402  0.38000209  0.36644324     0.03140
H1789       H  0.82840719  0.42861072  0.35893090     0.08250
H1790       H  0.83839419  0.36468163  0.36360674     0.07080
N1791       N  0.89690052  0.37800167  0.19704560    -0.27310
N1792       N  0.90506639  0.39321526  0.18169051    -0.35170
C1793       C  0.91503438  0.38438021  0.16890621     0.01030
C1794       C  0.91298402  0.36249309  0.17650267     0.07060
C1795       C  0.90136296  0.35891805  0.19436324    -0.06040
H1796       H  0.92279131  0.39302949  0.15494848     0.07730
H1797       H  0.89632677  0.34351546  0.20456430     0.08930
Cu1798     Cu  0.90204264  0.42505939  0.17826338     0.44170
Cu1799     Cu  0.88030604  0.38436708  0.22079009     0.41990
Cu1800     Cu  0.87350413  0.44017493  0.21671929     0.43880
N1801       N  0.89889877  0.45705846  0.17797970    -0.34690
N1802       N  0.88851975  0.46282144  0.19224837    -0.28950
C1803       C  0.89133207  0.48580120  0.18855811    -0.05050
C1804       C  0.90403503  0.49481109  0.17107544     0.07170
C1805       C  0.90844078  0.47607866  0.16473223     0.00960
H1806       H  0.88536310  0.49558645  0.19817759     0.08620
H1807       H  0.91878420  0.47672874  0.15184637     0.07690
N1808       N  0.86436122  0.41743082  0.24108068    -0.36140
N1809       N  0.86692310  0.39738941  0.24271096    -0.28320
C1810       C  0.86136945  0.38859493  0.26093938    -0.03560
C1811       C  0.85529361  0.40400884  0.27132611     0.05050
C1812       C  0.85715739  0.42191610  0.25816277     0.03140
H1813       H  0.86282258  0.37287987  0.26642157     0.08250
H1814       H  0.85398264  0.43742624  0.26073334     0.07080
O1815       O  0.78627279  0.98115333  0.45360715    -0.72960
O1816       O  0.77065156  0.02812398  0.48234414    -0.73940
O1817       O  0.81392966  0.02243321  0.48016111    -0.62560
O1818       O  0.74312269  0.48683346  0.45574149    -0.70970
O1819       O  0.72714466  0.45918123  0.48029614    -0.70520
O1820       O  0.79802017  0.49489977  0.50478810    -0.61780
O1821       O  0.75473666  0.50042008  0.50688421    -0.74290
O1822       O  0.77047348  0.45353636  0.47820205    -0.73070
Cu1823     Cu  0.77908764  0.00564653  0.46713350     1.04560
Cu1824     Cu  0.76200609  0.47599808  0.49337866     1.04330
C1825       C  0.78103524  0.46001622  0.46153427     0.93240
C1826       C  0.75998085  0.02156626  0.49897595     0.92380
C1827       C  0.81721163  0.01430063  0.49617234     0.84520
C1828       C  0.72391005  0.46740147  0.46430311     0.90790
N1829       N  0.73811250  0.05410104  0.53002194    -0.27310
N1830       N  0.74507626  0.06879226  0.51442238    -0.35170
C1831       C  0.75441767  0.05978234  0.50124343     0.01030
C1832       C  0.75316455  0.53830156  0.50885375     0.07060
C1833       C  0.74270401  0.53516278  0.52711499    -0.06040
H1834       H  0.76114868  0.06799666  0.48702876     0.07730
H1835       H  0.73855008  0.52015390  0.53745043     0.08930
Cu1836     Cu  0.74115029  0.10004427  0.51127474     0.44170
Cu1837     Cu  0.72296824  0.06092151  0.55441726     0.41990
Cu1838     Cu  0.71535237  0.11614055  0.55120259     0.43880
N1839       N  0.73738512  0.13159074  0.51136614    -0.34690
N1840       N  0.72797978  0.13768698  0.52611407    -0.28950
C1841       C  0.73048932  0.16053861  0.52251683    -0.05050
C1842       C  0.74201932  0.16912123  0.50462160     0.07170
C1843       C  0.74602421  0.15027495  0.49792337     0.00960
H1844       H  0.72546700  0.17070407  0.53256091     0.08620
H1845       H  0.75576273  0.15076223  0.48473523     0.07690
N1846       N  0.70831222  0.09427178  0.57577555    -0.36140
N1847       N  0.71101285  0.07428697  0.57704455    -0.28320
C1848       C  0.70684225  0.06592717  0.59539206    -0.03560
C1849       C  0.70132870  0.08146316  0.60619194     0.05050
C1850       C  0.70245526  0.09920242  0.59323615     0.03140
H1851       H  0.70908070  0.05059081  0.60058364     0.08250
H1852       H  0.69989737  0.11502874  0.59632769     0.07080
N1853       N  0.64420292  0.10642778  0.76262775    -0.27310
N1854       N  0.63545505  0.09086945  0.77778998    -0.35170
C1855       C  0.62540110  0.09967814  0.79052082     0.01030
C1856       C  0.62798777  0.12188908  0.78307668     0.07060
C1857       C  0.64001356  0.12568456  0.76536863    -0.06040
H1858       H  0.61725116  0.09080596  0.80435342     0.07730
H1859       H  0.64558326  0.14139569  0.75533886     0.08930
Cu1860     Cu  0.63791261  0.05865129  0.78104318     0.44170
Cu1861     Cu  0.66133493  0.10040122  0.73909946     0.41990
Cu1862     Cu  0.66692856  0.04384737  0.74271478     0.43880
N1863       N  0.64075120  0.02645342  0.78117182    -0.34690
N1864       N  0.65127657  0.02079284  0.76694597    -0.28950
C1865       C  0.64837702  0.99775692  0.77057187    -0.05050
C1866       C  0.63547825  0.98860944  0.78797353     0.07170
C1867       C  0.63103267  0.00731180  0.79432891     0.00960
H1868       H  0.65453128  0.98808658  0.76100107     0.08620
H1869       H  0.62063347  0.00661059  0.80719646     0.07690
N1870       N  0.67712374  0.06733468  0.71867318    -0.36140
N1871       N  0.67505174  0.08769540  0.71722798    -0.28320
C1872       C  0.68080815  0.09675009  0.69907009    -0.03560
C1873       C  0.68671762  0.08129063  0.68856537     0.05050
C1874       C  0.68420202  0.06289514  0.70152546     0.03140
H1875       H  0.67911133  0.11235360  0.69370749     0.08250
H1876       H  0.68633520  0.04676921  0.69857019     0.07080
O1877       O  0.62639740  0.15988688  0.78498431    -0.72960
O1878       O  0.61017722  0.20646033  0.81403703    -0.73940
O1879       O  0.65359693  0.20098110  0.81172825    -0.62560
O1880       O  0.58299288  0.16538517  0.78703827    -0.70970
O1881       O  0.56682251  0.13758682  0.81150012    -0.70520
O1882       O  0.63751636  0.17289948  0.83602408    -0.61780
O1883       O  0.59434209  0.17842953  0.83837265    -0.74290
O1884       O  0.61002590  0.13186782  0.80931303    -0.73070
Cu1885     Cu  0.61887002  0.18420169  0.79860235     1.04560
Cu1886     Cu  0.60158036  0.15418629  0.82461616     1.04330
C1887       C  0.62100367  0.13861844  0.79280349     0.93240
C1888       C  0.59960177  0.19970499  0.83070694     0.92380
C1889       C  0.65674372  0.19251321  0.82761600     0.84520
C1890       C  0.56372073  0.14589433  0.79550575     0.90790
C1891       C  0.69767806  0.08115219  0.62728651    -0.05480
C1892       C  0.70636269  0.10464439  0.63700639    -0.32910
C1893       C  0.70312688  0.10509172  0.65693868     0.36340
C1894       C  0.69104166  0.08174739  0.66753992    -0.05840
C1895       C  0.68246900  0.05827556  0.65781772    -0.32810
C1896       C  0.68573056  0.05783467  0.63789862     0.36240
H1897       H  0.71609007  0.12287693  0.62919601     0.16610
O1898       O  0.71292336  0.12855939  0.66599728    -0.60310
H1899       H  0.67264646  0.04001090  0.66558189     0.16630
O1900       O  0.67591230  0.03436166  0.62884543    -0.60410
H1901       H  0.68800252  0.02883935  0.63215435     0.43620
H1902       H  0.70100655  0.13422848  0.66249980     0.43580
C1903       C  0.84018642  0.39864674  0.33233904    -0.05480
C1904       C  0.85207090  0.42279616  0.32300385    -0.32910
C1905       C  0.85690557  0.42489209  0.30316757     0.36340
C1906       C  0.84979234  0.40251659  0.29223925    -0.05840
C1907       C  0.83773643  0.37833183  0.30155766    -0.32810
C1908       C  0.83292266  0.37624572  0.32140609     0.36240
H1909       H  0.85815895  0.44030200  0.33116766     0.16610
O1910       O  0.86993253  0.44910843  0.29488613    -0.60310
H1911       H  0.83172736  0.36084068  0.29339940     0.16630
O1912       O  0.81997330  0.35206134  0.32974617    -0.60410
H1913       H  0.83280036  0.34688897  0.33022589     0.43620
H1914       H  0.85704880  0.45419450  0.29420689     0.43580
C1915       C  0.94064207  0.07873144  0.62472407    -0.05480
C1916       C  0.95454764  0.10278266  0.63432582    -0.32910
C1917       C  0.95587401  0.10405704  0.65445587     0.36340
C1918       C  0.94342149  0.08099531  0.66544597    -0.05840
C1919       C  0.92961702  0.05695082  0.65582531    -0.32810
C1920       C  0.92827835  0.05568159  0.63570640     0.36240
H1921       H  0.96395131  0.12079344  0.62625122     0.16610
O1922       O  0.96893636  0.12799796  0.66316443    -0.60310
H1923       H  0.92021142  0.03892364  0.66387598     0.16630
O1924       O  0.91522117  0.03174571  0.62698873    -0.60410
H1925       H  0.92864266  0.02770349  0.62443533     0.43620
H1926       H  0.95554650  0.13211228  0.66561550     0.43580
C1927       C  0.93831749  0.32413730  0.62661476    -0.05480
C1928       C  0.94748287  0.31317007  0.63947096    -0.32910
C1929       C  0.95035353  0.31935737  0.65913016     0.36340
C1930       C  0.94402866  0.33685918  0.66631984    -0.05840
C1931       C  0.93494182  0.34789209  0.65344919    -0.32810
C1932       C  0.93206073  0.34169212  0.63378840     0.36240
H1933       H  0.95195742  0.29926928  0.63436765     0.16610
O1934       O  0.95803939  0.30711401  0.67130932    -0.60310
H1935       H  0.93043536  0.36176742  0.65855691     0.16630
O1936       O  0.92433551  0.35388924  0.62159481    -0.60410
H1937       H  0.90551433  0.34583429  0.62422108     0.43620
H1938       H  0.97687989  0.31521589  0.66873652     0.43580
C1939       C  0.60285637  0.15764314  0.33303809    -0.05480
C1940       C  0.57778573  0.14494312  0.32503335    -0.32910
C1941       C  0.57350957  0.13719999  0.30568741     0.36340
C1942       C  0.59458228  0.14241139  0.29377246    -0.05840
C1943       C  0.61962741  0.15500206  0.30180624    -0.32810
C1944       C  0.62390184  0.16272684  0.32114542     0.36240
H1945       H  0.56125804  0.14056275  0.33388527     0.16610
O1946       O  0.54852877  0.12409097  0.29878061    -0.60310
H1947       H  0.63618436  0.15946831  0.29295967     0.16630
O1948       O  0.64889425  0.17585488  0.32802913    -0.60410
H1949       H  0.65556033  0.19454106  0.32623452     0.43620
H1950       H  0.54191664  0.10539733  0.30043953     0.43580
C1951       C  0.60135363  0.40632356  0.33525217    -0.05480
C1952       C  0.62435593  0.41818114  0.32427257    -0.32910
C1953       C  0.62354232  0.41777509  0.30412177     0.36340
C1954       C  0.59941192  0.40561299  0.29449198    -0.05840
C1955       C  0.57641561  0.39382533  0.30546536    -0.32810
C1956       C  0.57722684  0.39426412  0.32561340     0.36240
H1957       H  0.64312090  0.42727698  0.33128637     0.16610
O1958       O  0.64648899  0.42885171  0.29405288    -0.60310
H1959       H  0.55765546  0.38470038  0.29843680     0.16630
O1960       O  0.55427315  0.38323973  0.33566663    -0.60410
H1961       H  0.55164006  0.39765184  0.33806815     0.43620
H1962       H  0.64922722  0.41449682  0.29171499     0.43580
C1963       C  0.52904722  0.24799313  0.96042926    -0.05480
C1964       C  0.01628585  0.22243145  0.96752675    -0.32910
C1965       C  0.00824607  0.21680931  0.98678735     0.36340
C1966       C  0.51317930  0.23697707  0.99955349    -0.05840
C1967       C  0.52595166  0.26254352  0.99245303    -0.32810
C1968       C  0.53397271  0.26816031  0.97318682     0.36240
H1969       H  0.01201866  0.20653713  0.95801863     0.16610
O1970       O  0.99505089  0.19140331  0.99275635    -0.60310
H1971       H  0.53022772  0.27844406  0.00195604     0.16630
O1972       O  0.54713755  0.29355781  0.96719718    -0.60410
H1973       H  0.56583199  0.30013554  0.96891234     0.43620
H1974       H  0.97636360  0.18484410  0.99102217     0.43580
C1975       C  0.76734240  0.48902052  0.00053526    -0.05480
C1976       C  0.79119981  0.99911694  0.99091201    -0.32910
C1977       C  0.79232978  0.99885506  0.97081930     0.36340
C1978       C  0.76929810  0.48807592  0.95994346    -0.05840
C1979       C  0.74542634  0.47790603  0.96956660    -0.32810
C1980       C  0.74430062  0.47818042  0.98966594     0.36240
H1981       H  0.80922043  0.00791656  0.99893203     0.16610
O1982       O  0.81614189  0.00972954  0.96201399    -0.60310
H1983       H  0.72741889  0.46916129  0.96153361     0.16630
O1984       O  0.72050769  0.46738976  0.99848694    -0.60410
H1985       H  0.71469200  0.44906532  0.00107317     0.43620
H1986       H  0.82193545  0.02806149  0.95948860     0.43580
C1987       C  0.77096099  0.24623846  0.95894098    -0.05480
C1988       C  0.79494575  0.25822571  0.96854638    -0.32910
C1989       C  0.79614979  0.25465971  0.98834890     0.36340
C1990       C  0.77303070  0.23912965  0.99909517    -0.05840
C1991       C  0.74904986  0.22718742  0.98948937    -0.32810
C1992       C  0.74784619  0.23075105  0.96969507     0.36240
H1993       H  0.81296261  0.27000309  0.96060868     0.16610
O1994       O  0.82012733  0.26599081  0.99685996    -0.60310
H1995       H  0.73102318  0.21541806  0.99741613     0.16630
O1996       O  0.72386402  0.21944425  0.96119395    -0.60410
H1997       H  0.71950311  0.23287405  0.96165986     0.43620
H1998       H  0.82454097  0.25260137  0.99635445     0.43580
N1999       N  0.73520875  0.66973443  0.09784864    -0.27310
N2000       N  0.74831409  0.67933302  0.11408097    -0.35170
C2001       C  0.73881244  0.66049092  0.12743857     0.01030
C2002       C  0.71870649  0.63780698  0.11936672     0.07060
C2003       C  0.71676094  0.64432978  0.10058468    -0.06040
H2004       H  0.74682803  0.66287566  0.14173416     0.07730
H2005       H  0.70385742  0.63130917  0.08948599     0.08930
Cu2006     Cu  0.78128141  0.71616647  0.11709874     0.44170
Cu2007     Cu  0.74584257  0.69145232  0.07239248     0.41990
Cu2008     Cu  0.80749226  0.75583823  0.07558387     0.43880
N2009       N  0.81811055  0.74959316  0.11652327    -0.34690
N2010       N  0.82806476  0.76443784  0.10109104    -0.28950
C2011       C  0.85331380  0.78266012  0.10436213    -0.05050
C2012       C  0.85947881  0.77883510  0.12270375     0.07170
C2013       C  0.83668511  0.75780483  0.13001771     0.00960
H2014       H  0.86652707  0.79660857  0.09379124     0.08620
H2015       H  0.83413309  0.74826751  0.14371121     0.07690
N2016       N  0.78547421  0.74054074  0.05080286    -0.36140
N2017       N  0.76347984  0.71747651  0.04941951    -0.28320
C2018       C  0.75553629  0.71361287  0.03094295    -0.03560
C2019       C  0.77349291  0.73513107  0.02016785     0.05050
C2020       C  0.79204944  0.75183488  0.03336094     0.03140
H2021       H  0.73831496  0.69608349  0.02565440     0.08250
H2022       H  0.80919189  0.77088716  0.03062616     0.07080
N2023       N  0.80703341  0.81521763  0.86002576    -0.27310
N2024       N  0.79369557  0.80553728  0.84389149    -0.35170
C2025       C  0.80276964  0.82439918  0.83056445     0.01030
C2026       C  0.82283579  0.84717033  0.83856354     0.07060
C2027       C  0.82520316  0.84068333  0.85725498    -0.06040
H2028       H  0.79450832  0.82194698  0.81635344     0.07730
H2029       H  0.83822453  0.85375720  0.86828266     0.08930
Cu2030     Cu  0.76099095  0.76850659  0.84104835     0.44170
Cu2031     Cu  0.79712472  0.79356136  0.88548251     0.41990
Cu2032     Cu  0.73585203  0.72890801  0.88268185     0.43880
N2033       N  0.72428171  0.73495997  0.84198400    -0.34690
N2034       N  0.71469290  0.72016073  0.85746835    -0.28950
C2035       C  0.68935640  0.70194831  0.85450357    -0.05050
C2036       C  0.68276328  0.70573731  0.83630730     0.07170
C2037       C  0.70538995  0.72672154  0.82875795     0.00960
H2038       H  0.67638315  0.68806407  0.86520294     0.08620
H2039       H  0.70760948  0.73625190  0.81511421     0.07690
N2040       N  0.75820589  0.74441473  0.90727873    -0.36140
N2041       N  0.78007408  0.76759866  0.90855597    -0.28320
C2042       C  0.78818212  0.77162073  0.92700028    -0.03560
C2043       C  0.77044140  0.75008080  0.93785358     0.05050
C2044       C  0.75187315  0.73319850  0.92474403     0.03140
H2045       H  0.80531248  0.78928562  0.93222643     0.08250
H2046       H  0.73483732  0.71410374  0.92756447     0.07080
O2047       O  0.79800359  0.75945927  0.50588328    -0.72960
O2048       O  0.72939791  0.73368579  0.48003257    -0.73940
O2049       O  0.74915412  0.71132766  0.50475067    -0.62560
O2050       O  0.77802777  0.78159272  0.48120461    -0.70970
O2051       O  0.79103602  0.76969087  0.45559864    -0.70520
O2052       O  0.76223189  0.69945932  0.47916635    -0.61780
O2053       O  0.74224335  0.72155702  0.45447391    -0.74290
O2054       O  0.81082679  0.74736553  0.48029135    -0.73070
Cu2055     Cu  0.76318044  0.74692823  0.49386414     1.04560
Cu2056     Cu  0.77704786  0.73410511  0.46649032     1.04330
C2057       C  0.81516149  0.75727223  0.49715163     0.93240
C2058       C  0.72508640  0.72377236  0.46317263     0.92380
C2059       C  0.75136926  0.69441214  0.49571452     0.84520
C2060       C  0.78885294  0.78662157  0.46464349     0.90790
O2061       O  0.63794805  0.93864550  0.83851090    -0.72960
O2062       O  0.56793482  0.91019382  0.81412079    -0.73940
O2063       O  0.58960300  0.88992399  0.83915622    -0.62560
O2064       O  0.61598465  0.95878480  0.81382281    -0.70970
O2065       O  0.62873453  0.94647328  0.78830934    -0.70520
O2066       O  0.60200671  0.87735233  0.81359704    -0.61780
O2067       O  0.58049717  0.89770305  0.78860156    -0.74290
O2068       O  0.65009764  0.92582721  0.81294189    -0.73070
Cu2069     Cu  0.60240738  0.92481614  0.82729872     1.04560
Cu2070     Cu  0.61574709  0.91137601  0.79997682     1.04330
C2071       C  0.65500527  0.93655302  0.82950527     0.93240
C2072       C  0.56333633  0.89974942  0.79743082     0.92380
C2073       C  0.59189152  0.87287345  0.83042029     0.84520
C2074       C  0.62643357  0.96348382  0.79713587     0.90790
N2075       N  0.74139789  0.02900025  0.09741670    -0.27310
N2076       N  0.75697033  0.03735835  0.11254731    -0.35170
C2077       C  0.74867344  0.04790770  0.12527208     0.01030
C2078       C  0.72679501  0.04604374  0.11780910     0.07060
C2079       C  0.72264887  0.03391960  0.10014240    -0.06040
H2080       H  0.75772565  0.55601788  0.13904880     0.07730
H2081       H  0.70712932  0.02892522  0.09006959     0.08930
Cu2082     Cu  0.78874918  0.03409955  0.11538488     0.44170
Cu2083     Cu  0.74703880  0.01196017  0.07375275     0.41990
Cu2084     Cu  0.80360341  0.00625725  0.07600518     0.43880
N2085       N  0.82103305  0.03141557  0.11474251    -0.34690
N2086       N  0.82673786  0.02137287  0.10020024    -0.28950
C2087       C  0.85007520  0.02470250  0.10338764    -0.05050
C2088       C  0.85936278  0.03740393  0.12081325     0.07170
C2089       C  0.84043773  0.04124840  0.12765033     0.00960
H2090       H  0.85990374  0.01912728  0.09345727     0.08620
H2091       H  0.84120371  0.55144476  0.14063988     0.07690
N2092       N  0.78028765  0.99747925  0.05204917    -0.36140
N2093       N  0.75986702  0.99954474  0.05116534    -0.28320
C2094       C  0.75122020  0.99545455  0.03292271    -0.03560
C2095       C  0.76702906  0.99069205  0.02176163     0.05050
C2096       C  0.78518697  0.99207144  0.03441817     0.03140
H2097       H  0.73582440  0.99777346  0.02797401     0.08250
H2098       H  0.80159880  0.99057281  0.03094392     0.07080
N2099       N  0.79806970  0.95369433  0.86167748    -0.27310
N2100       N  0.78295296  0.94608706  0.84630327    -0.35170
C2101       C  0.79181098  0.93641540  0.83326608     0.01030
C2102       C  0.81358389  0.93809405  0.84078231     0.07060
C2103       C  0.81707938  0.94918569  0.85880147    -0.06040
H2104       H  0.78317389  0.92896705  0.81927158     0.07730
H2105       H  0.83226604  0.95365181  0.86905388     0.08930
Cu2106     Cu  0.75097261  0.94910262  0.84362367     0.44170
Cu2107     Cu  0.79138129  0.96896402  0.88593463     0.41990
Cu2108     Cu  0.73472814  0.97440280  0.88402599     0.43880
N2109       N  0.71861497  0.95171662  0.84444070    -0.34690
N2110       N  0.71250182  0.96092522  0.85931151    -0.28950
C2111       C  0.68925232  0.95777311  0.85609180    -0.05050
C2112       C  0.68041300  0.94603407  0.83831399     0.07170
C2113       C  0.69952886  0.94257838  0.83129740     0.00960
H2114       H  0.67910399  0.96266777  0.86626598     0.08620
H2115       H  0.69906530  0.93303497  0.81802425     0.07690
N2116       N  0.75713895  0.98156337  0.90827850    -0.36140
N2117       N  0.77763092  0.97960805  0.90901899    -0.28320
C2118       C  0.78585115  0.48276536  0.92733674    -0.03560
C2119       C  0.76969851  0.48682437  0.93869592     0.05050
C2120       C  0.75175434  0.48596300  0.92608578     0.03140
H2121       H  0.80132961  0.48048084  0.93212309     0.08250
H2122       H  0.73529656  0.48734511  0.92965307     0.07080
N2123       N  0.46388274  0.75321336  0.09709275    -0.27310
N2124       N  0.45642882  0.73780025  0.11230000    -0.35170
C2125       C  0.94745102  0.74666962  0.12590852     0.01030
C2126       C  0.94944892  0.76882936  0.11897770     0.07060
C2127       C  0.45996284  0.77248105  0.10067109    -0.06040
H2128       H  0.94030577  0.73779459  0.13989603     0.07730
H2129       H  0.46450916  0.78800754  0.09072900     0.08930
Cu2130     Cu  0.45911517  0.70566819  0.11401002     0.44170
Cu2131     Cu  0.47878048  0.74672616  0.07234293     0.41990
Cu2132     Cu  0.48338275  0.68929608  0.07270379     0.43880
N2133       N  0.46165317  0.67341025  0.11283718    -0.34690
N2134       N  0.47026407  0.66700383  0.09773833    -0.28950
C2135       C  0.46754676  0.64399209  0.10126351    -0.05050
C2136       C  0.95674265  0.63570345  0.11944826     0.07170
C2137       C  0.95335333  0.65485418  0.12634919     0.00960
H2138       H  0.47228295  0.63369460  0.09112264     0.08620
H2139       H  0.94456439  0.65485715  0.13990322     0.07690
N2140       N  0.49321731  0.71419813  0.04926681    -0.36140
N2141       N  0.49154443  0.73487428  0.04918223    -0.28320
C2142       C  0.49859194  0.74611430  0.03171057    -0.03560
C2143       C  0.50487789  0.73181601  0.02009290     0.05050
C2144       C  0.50136622  0.71178745  0.03182435     0.03140
H2145       H  0.49852408  0.76314572  0.02765284     0.08250
H2146       H  0.50459410  0.69657737  0.02810885     0.07080
N2147       N  0.57856668  0.73191978  0.86295679    -0.27310
N2148       N  0.58570337  0.74716267  0.84766986    -0.35170
C2149       C  0.59469630  0.73833499  0.83404404     0.01030
C2150       C  0.59302996  0.71636858  0.84104456     0.07060
C2151       C  0.58270396  0.71279255  0.85941265    -0.06040
H2152       H  0.60152376  0.74704170  0.81997138     0.07730
H2153       H  0.57834790  0.69736126  0.86939304     0.08930
Cu2154     Cu  0.58235058  0.77885831  0.84581678     0.44170
Cu2155     Cu  0.56361614  0.73835908  0.88769698     0.41990
Cu2156     Cu  0.55801264  0.79520487  0.88709120     0.43880
N2157       N  0.57915909  0.81070796  0.84678349    -0.34690
N2158       N  0.57054012  0.81713080  0.86186719    -0.28950
C2159       C  0.57289283  0.83994259  0.85819477    -0.05050
C2160       C  0.58346848  0.84807442  0.83993198     0.07170
C2161       C  0.58709855  0.82904318  0.83313773     0.00960
H2162       H  0.56812642  0.85025144  0.86830056     0.08620
H2163       H  0.59587322  0.82901725  0.81958273     0.07690
N2164       N  0.54870685  0.77060602  0.91066034    -0.36140
N2165       N  0.55069697  0.75011952  0.91081475    -0.28320
C2166       C  0.54382390  0.73897774  0.92832455    -0.03560
C2167       C  0.53733250  0.75314869  0.93989347     0.05050
C2168       C  0.54054245  0.77300039  0.92810318     0.03140
H2169       H  0.54412683  0.72209214  0.93243741     0.08250
H2170       H  0.53706733  0.78805453  0.93177979     0.07080
O2171       O  0.95028455  0.59369528  0.12005421    -0.72960
O2172       O  0.92371685  0.52470082  0.14527552    -0.73940
O2173       O  0.90188100  0.54492280  0.12058756    -0.62560
O2174       O  0.97182382  0.57326362  0.14507555    -0.70970
O2175       O  0.95916322  0.58556218  0.17064864    -0.70520
O2176       O  0.88975187  0.55784731  0.14610604    -0.61780
O2177       O  0.91083135  0.53695211  0.17074492    -0.74290
O2178       O  0.93794859  0.60624802  0.14566225    -0.73070
Cu2179     Cu  0.93739059  0.55872586  0.13184697     1.04560
Cu2180     Cu  0.92400943  0.57211966  0.15917084     1.04330
C2181       C  0.94810005  0.61077730  0.12885114     0.93240
C2182       C  0.91315459  0.01995490  0.16192425     0.92380
C2183       C  0.88482859  0.54704207  0.12957092     0.84520
C2184       C  0.97634037  0.58353341  0.16182532     0.90790
N2185       N  0.66533740  0.93957119  0.43489777    -0.27310
N2186       N  0.65590874  0.92551541  0.45076572    -0.35170
C2187       C  0.67509691  0.93386102  0.46374763     0.01030
C2188       C  0.69777788  0.45415082  0.45572151     0.07060
C2189       C  0.69090787  0.45742740  0.43744196    -0.06040
H2190       H  0.67293559  0.92494398  0.47766070     0.07730
H2191       H  0.70377869  0.47083876  0.42647637     0.08930
Cu2192     Cu  0.61875686  0.89278786  0.45319155     0.44170
Cu2193     Cu  0.64339828  0.93084683  0.40987407     0.41990
Cu2194     Cu  0.57934214  0.86898182  0.41094003     0.43880
N2195       N  0.58527137  0.85609998  0.45140208    -0.34690
N2196       N  0.57065981  0.84700889  0.43579793    -0.28950
C2197       C  0.05260289  0.82152284  0.43830409    -0.05050
C2198       C  0.05630451  0.81432696  0.45630334     0.07170
C2199       C  0.57705264  0.83674263  0.46422272     0.00960
H2200       H  0.03890691  0.80888422  0.42740879     0.08620
H2201       H  0.58648608  0.83853231  0.47782902     0.07690
N2202       N  0.59533718  0.89264652  0.38691449    -0.36140
N2203       N  0.61838975  0.91476060  0.38640848    -0.28320
C2204       C  0.62361273  0.92350049  0.36814779    -0.03560
C2205       C  0.60288223  0.90610780  0.35657818     0.05050
C2206       C  0.58534713  0.88680984  0.36904631     0.03140
H2207       H  0.64160613  0.94082574  0.36356202     0.08250
H2208       H  0.56735894  0.86893691  0.36531944     0.07080
N2209       N  0.53602131  0.86842354  0.19462435    -0.27310
N2210       N  0.54550516  0.88206595  0.17858651    -0.35170
C2211       C  0.52650319  0.87303541  0.16539782     0.01030
C2212       C  0.00386993  0.85272824  0.17344816     0.07060
C2213       C  0.01057607  0.85013612  0.19198044    -0.06040
H2214       H  0.52870223  0.88158750  0.15132552     0.07730
H2215       H  0.99763616  0.83699912  0.20304057     0.08930
Cu2216     Cu  0.58223733  0.91534928  0.17607916     0.44170
Cu2217     Cu  0.55767270  0.87848723  0.21989033     0.41990
Cu2218     Cu  0.62105915  0.94137965  0.21833297     0.43880
N2219       N  0.61507933  0.95252333  0.17737489    -0.34690
N2220       N  0.62955381  0.96243134  0.19297597    -0.28950
C2221       C  0.64743388  0.48784875  0.18993458    -0.05050
C2222       C  0.64373817  0.49414559  0.17158738     0.07170
C2223       C  0.62317170  0.97127231  0.16403395     0.00960
H2224       H  0.66113018  0.50101971  0.20062008     0.08620
H2225       H  0.61392636  0.96870404  0.15021310     0.07690
N2226       N  0.60525700  0.91824738  0.24266831    -0.36140
N2227       N  0.58246776  0.89584194  0.24333094    -0.28320
C2228       C  0.57733417  0.88752488  0.26169438    -0.03560
C2229       C  0.59784995  0.90547504  0.27316560     0.05050
C2230       C  0.61517206  0.92467021  0.26054657     0.03140
H2231       H  0.55957536  0.87003386  0.26639827     0.08250
H2232       H  0.63298116  0.94278991  0.26415400     0.07080
N2233       N  0.58406145  0.71000940  0.42837015    -0.27310
N2234       N  0.59943046  0.71787046  0.44361519    -0.35170
C2235       C  0.59052698  0.72725301  0.45685528     0.01030
C2236       C  0.56839726  0.72513237  0.44969265     0.07060
C2237       C  0.56478825  0.71409862  0.43158899    -0.06040
H2238       H  0.59921286  0.73451513  0.47086462     0.07730
H2239       H  0.54913069  0.70904762  0.42163947     0.08930
Cu2240     Cu  0.63128130  0.71473298  0.44634279     0.44170
Cu2241     Cu  0.59032192  0.69381147  0.40423605     0.41990
Cu2242     Cu  0.64683613  0.68759972  0.40694792     0.43880
N2243       N  0.66307064  0.71124988  0.44635240    -0.34690
N2244       N  0.66914704  0.70153119  0.43180383    -0.28950
C2245       C  0.69186511  0.70378295  0.43570474    -0.05050
C2246       C  0.70032624  0.71541048  0.45359949     0.07170
C2247       C  0.68156485  0.71978468  0.45993906     0.00960
H2248       H  0.70183324  0.69810685  0.42600527     0.08620
H2249       H  0.68182403  0.72939522  0.47311782     0.07690
N2250       N  0.62276106  0.67752913  0.38309838    -0.36140
N2251       N  0.60244507  0.67977210  0.38204289    -0.28320
C2252       C  0.59208327  0.67263377  0.36430502    -0.03560
C2253       C  0.60666325  0.66576711  0.35358249     0.05050
C2254       C  0.62583110  0.66895056  0.36609234     0.03140
H2255       H  0.57559579  0.67318363  0.35940779     0.08250
H2256       H  0.64101749  0.66537621  0.36316673     0.07080
N2257       N  0.61750940  0.59808497  0.19612862    -0.27310
N2258       N  0.60289031  0.59147551  0.18052531    -0.35170
C2259       C  0.61230961  0.58299664  0.16697943     0.01030
C2260       C  0.63402538  0.58446325  0.17432524     0.07060
C2261       C  0.63684997  0.59413733  0.19283794    -0.06040
H2262       H  0.60407049  0.57649651  0.15275790     0.07730
H2263       H  0.65178098  0.59796866  0.20314440     0.08930
Cu2264     Cu  0.57097283  0.59441735  0.17798787     0.44170
Cu2265     Cu  0.60974621  0.61166794  0.22106855     0.41990
Cu2266     Cu  0.55286824  0.61709526  0.21892064     0.43880
N2267       N  0.53879325  0.59713813  0.17836109    -0.34690
N2268       N  0.53186789  0.60532843  0.19340533    -0.28950
C2269       C  0.50898446  0.60272606  0.18958216    -0.05050
C2270       C  0.50127447  0.59240117  0.17125389     0.07170
C2271       C  0.52065384  0.58918461  0.16455712     0.00960
H2272       H  0.49825435  0.60697848  0.19968505     0.08620
H2273       H  0.52098457  0.58057156  0.15101901     0.07690
N2274       N  0.57576703  0.62511203  0.24322205    -0.36140
N2275       N  0.59625903  0.62314247  0.24404907    -0.28320
C2276       C  0.60604972  0.62906775  0.26199868    -0.03560
C2277       C  0.59093312  0.63488845  0.27309810     0.05050
C2278       C  0.57200421  0.63230646  0.26060060     0.03140
H2279       H  0.62269785  0.62867188  0.26669396     0.08250
H2280       H  0.55669078  0.63562827  0.26373086     0.07080
O2281       O  0.67195399  0.58292168  0.17199506    -0.72960
O2282       O  0.71770571  0.56534980  0.14363055    -0.73940
O2283       O  0.71285872  0.60913625  0.14473576    -0.62560
O2284       O  0.67678442  0.53929419  0.17069233    -0.70970
O2285       O  0.64854378  0.02283288  0.14653770    -0.70520
O2286       O  0.68501357  0.59268914  0.12034922    -0.61780
O2287       O  0.68945921  0.54869243  0.11947489    -0.74290
O2288       O  0.64389571  0.56679313  0.14771142    -0.73070
Cu2289     Cu  0.69584717  0.57480883  0.15857257     1.04560
Cu2290     Cu  0.66569295  0.55717212  0.13268870     1.04330
C2291       C  0.65071710  0.57768668  0.16424806     0.93240
C2292       C  0.71063572  0.55388018  0.12732560     0.92380
C2293       C  0.70477151  0.61198484  0.12854124     0.84520
C2294       C  0.65701560  0.51997340  0.16253852     0.90790
O2295       O  0.51076289  0.75585784  0.50688956    -0.72960
O2296       O  0.55807529  0.74174275  0.47673210    -0.73940
O2297       O  0.55178436  0.78449843  0.48022459    -0.62560
O2298       O  0.51702073  0.71312818  0.50341306    -0.70970
O2299       O  0.98908962  0.69756016  0.47904203    -0.70520
O2300       O  0.52391489  0.76896959  0.45581583    -0.61780
O2301       O  0.53011939  0.72617534  0.45237913    -0.74290
O2302       O  0.98281256  0.74034626  0.48253344    -0.73070
Cu2303     Cu  0.53542175  0.74937320  0.49264166     1.04560
Cu2304     Cu  0.00546948  0.73270160  0.46661058     1.04330
C2305       C  0.48940391  0.75055679  0.49929950     0.93240
C2306       C  0.55146506  0.73146559  0.45998999     0.92380
C2307       C  0.54331246  0.78803276  0.46449110     0.84520
C2308       C  0.99761953  0.69404954  0.49475671     0.90790
N2309       N  0.95662822  0.77152120  0.53120452    -0.27310
N2310       N  0.94123582  0.76373050  0.51597531    -0.35170
C2311       C  0.95021252  0.75456048  0.50261519     0.01030
C2312       C  0.47241978  0.75675430  0.50968341     0.07060
C2313       C  0.47599050  0.76760191  0.52785636    -0.06040
H2314       H  0.94151119  0.74737690  0.48859922     0.07730
H2315       H  0.49167882  0.77263567  0.53777025     0.08930
Cu2316     Cu  0.90925598  0.76669626  0.51347452     0.44170
Cu2317     Cu  0.95031866  0.78748916  0.55546873     0.41990
Cu2318     Cu  0.89405821  0.79412276  0.55293963     0.43880
N2319       N  0.87736587  0.77001873  0.51369848    -0.34690
N2320       N  0.87140667  0.77981710  0.52826357    -0.28950
C2321       C  0.84860493  0.77745444  0.52448717    -0.05050
C2322       C  0.83997415  0.76567749  0.50665519     0.07170
C2323       C  0.85871688  0.76132838  0.50022585     0.00960
H2324       H  0.83872703  0.78320575  0.53421355     0.08620
H2325       H  0.85836674  0.75166713  0.48704913     0.07690
N2326       N  0.91854844  0.80463104  0.57657694    -0.36140
N2327       N  0.93858070  0.80192861  0.57764901    -0.28320
C2328       C  0.94899273  0.80899014  0.59537797    -0.03560
C2329       C  0.93498570  0.81666537  0.60596602     0.05050
C2330       C  0.91581429  0.81358375  0.59352793     0.03140
H2331       H  0.96535606  0.80822255  0.60027742     0.08250
H2332       H  0.90020682  0.81643478  0.59675644     0.07080
N2333       N  0.92305988  0.88635218  0.76235350    -0.27310
N2334       N  0.93782249  0.89325637  0.77789614    -0.35170
C2335       C  0.92878146  0.90236221  0.79124256     0.01030
C2336       C  0.90715336  0.90100975  0.78384578     0.07060
C2337       C  0.90399100  0.89074822  0.76549639    -0.06040
H2338       H  0.93710845  0.90903731  0.80542153     0.07730
H2339       H  0.88889090  0.88662518  0.75526235     0.08930
Cu2340     Cu  0.96918733  0.88952233  0.78079225     0.44170
Cu2341     Cu  0.93002070  0.87129918  0.73783990     0.41990
Cu2342     Cu  0.98572098  0.86394056  0.74094295     0.43880
N2343       N  0.00090379  0.88608438  0.78084668    -0.34690
N2344       N  0.00734736  0.87692207  0.76614466    -0.28950
C2345       C  0.53016997  0.87943078  0.77004785    -0.05050
C2346       C  0.53831379  0.89068248  0.78808347     0.07170
C2347       C  0.01926312  0.89454463  0.79452225     0.00960
H2348       H  0.54055094  0.87444322  0.76018232     0.08620
H2349       H  0.01933366  0.90396668  0.80775049     0.07690
N2350       N  0.96236649  0.85484341  0.71677743    -0.36140
N2351       N  0.94249615  0.85777402  0.71550637    -0.28320
C2352       C  0.93272382  0.85145024  0.69755677    -0.03560
C2353       C  0.94698679  0.84402206  0.68702889     0.05050
C2354       C  0.96564857  0.84649618  0.69973603     0.03140
H2355       H  0.91653499  0.85241734  0.69250505     0.08250
H2356       H  0.98121120  0.84351438  0.69669237     0.07080
O2357       O  0.89729771  0.91867730  0.81048549    -0.72960
O2358       O  0.85123827  0.93596288  0.83899861    -0.73940
O2359       O  0.85618557  0.89232011  0.83772574    -0.62560
O2360       O  0.89233158  0.96241346  0.81213990    -0.70970
O2361       O  0.86431090  0.94625261  0.78784069    -0.70520
O2362       O  0.82835039  0.87596288  0.81332802    -0.61780
O2363       O  0.82319131  0.91957672  0.81471049    -0.74290
O2364       O  0.86930150  0.90267439  0.78616065    -0.73070
Cu2365     Cu  0.87529364  0.92792504  0.82566172     1.04560
Cu2366     Cu  0.84527234  0.91049782  0.79968862     1.04330
C2367       C  0.89052043  0.90787589  0.79391118     0.93240
C2368       C  0.83005403  0.93074024  0.83112873     0.92380
C2369       C  0.83651267  0.87303550  0.82946856     0.84520
C2370       C  0.88395888  0.96549451  0.79618119     0.90790
N2371       N  0.87602978  0.54268444  0.52536579    -0.27310
N2372       N  0.88529103  0.55649016  0.50937445    -0.35170
C2373       C  0.86598611  0.54786962  0.49646927     0.01030
C2374       C  0.84340007  0.02766520  0.50466960     0.07060
C2375       C  0.85044796  0.02471999  0.52298019    -0.06040
H2376       H  0.86799771  0.55656029  0.48248179     0.07730
H2377       H  0.83769016  0.01148337  0.53406875     0.08930
Cu2378     Cu  0.92235810  0.58929481  0.50661988     0.44170
Cu2379     Cu  0.89820591  0.55192581  0.55030195     0.41990
Cu2380     Cu  0.96237871  0.61359195  0.54851984     0.43880
N2381       N  0.95586157  0.62602971  0.50807564    -0.34690
N2382       N  0.47071632  0.63524381  0.52355299    -0.28950
C2383       C  0.48871042  0.66070945  0.52092047    -0.05050
C2384       C  0.48472714  0.66778155  0.50297218     0.07170
C2385       C  0.46387192  0.64530442  0.49520291     0.00960
H2386       H  0.50254452  0.67342879  0.53171774     0.08620
H2387       H  0.45422579  0.64342457  0.48168371     0.07690
N2388       N  0.94644101  0.59065526  0.57286653    -0.36140
N2389       N  0.92339712  0.56855009  0.57360965    -0.28320
C2390       C  0.91820614  0.56033188  0.59199638    -0.03560
C2391       C  0.93891606  0.57813188  0.60340345     0.05050
C2392       C  0.95642466  0.59705308  0.59071542     0.03140
H2393       H  0.89996371  0.54348720  0.59678109     0.08250
H2394       H  0.47472099  0.61473223  0.59424370     0.07080
N2395       N  0.50550860  0.61746046  0.76569537    -0.27310
N2396       N  0.49598607  0.60350573  0.78159899    -0.35170
C2397       C  0.51500730  0.61219846  0.79475369     0.01030
C2398       C  0.53767443  0.63259380  0.78680255     0.07060
C2399       C  0.53097335  0.63559237  0.76838589    -0.06040
H2400       H  0.51279547  0.60336004  0.80870814     0.07730
H2401       H  0.54393051  0.64890343  0.75740898     0.08930
Cu2402     Cu  0.95913747  0.57028474  0.78386698     0.44170
Cu2403     Cu  0.98400895  0.60805423  0.74041621     0.41990
Cu2404     Cu  0.92045878  0.54541913  0.74145963     0.43880
N2405       N  0.92609244  0.53325325  0.78217716    -0.34690
N2406       N  0.91167558  0.52376327  0.76651160    -0.28950
C2407       C  0.89370316  0.99828888  0.76923533    -0.05050
C2408       C  0.89726545  0.99152046  0.78745007     0.07170
C2409       C  0.91785029  0.51417692  0.79525161     0.00960
H2410       H  0.88005915  0.98540294  0.75840979     0.08620
H2411       H  0.92703793  0.51636618  0.80904234     0.07690
N2412       N  0.93672342  0.56873447  0.71728274    -0.36140
N2413       N  0.95952981  0.59112387  0.71678964    -0.28320
C2414       C  0.96503407  0.59949426  0.69844381    -0.03560
C2415       C  0.94476919  0.58150738  0.68679542     0.05050
C2416       C  0.92719470  0.56233185  0.69931410     0.03140
H2417       H  0.48320363  0.61661236  0.69387954     0.08250
H2418       H  0.90915284  0.54448910  0.69560313     0.07080
O2419       O  0.94801017  0.80671757  0.12159014    -0.72960
O2420       O  0.93137052  0.85278522  0.15038569    -0.73940
O2421       O  0.97486029  0.84749416  0.14859844    -0.62560
O2422       O  0.90460724  0.81187629  0.12347733    -0.70970
O2423       O  0.88824634  0.78368435  0.14769578    -0.70520
O2424       O  0.95859425  0.81960383  0.17299981    -0.61780
O2425       O  0.91490530  0.82468368  0.17465928    -0.74290
O2426       O  0.93192963  0.77856139  0.14584115    -0.73070
Cu2427     Cu  0.94031486  0.83073273  0.13520827     1.04560
Cu2428     Cu  0.92283097  0.80060324  0.16114373     1.04330
C2429       C  0.94272818  0.78542822  0.12924984     0.92970
C2430       C  0.92022369  0.84592199  0.16683627     0.92380
C2431       C  0.97787691  0.83921676  0.16463493     0.84520
C2432       C  0.88530793  0.79215419  0.13172418     0.90790
N2433       N  0.80170584  0.92669246  0.43017888    -0.27310
N2434       N  0.79536410  0.91240650  0.44596125    -0.35170
C2435       C  0.78662876  0.92181608  0.45930729     0.01030
C2436       C  0.78764788  0.94314379  0.45161996     0.07060
C2437       C  0.79733522  0.94577598  0.43313849    -0.06040
H2438       H  0.78040239  0.91393388  0.47366120     0.07730
H2439       H  0.80101169  0.96047394  0.42265587     0.08930
Cu2440     Cu  0.79918090  0.88107183  0.44910413     0.44170
Cu2441     Cu  0.81555165  0.91904619  0.40541602     0.41990
Cu2442     Cu  0.82358464  0.86413478  0.40875740     0.43880
N2443       N  0.80281955  0.84943378  0.44896716    -0.34690
N2444       N  0.81179494  0.84309718  0.43407827    -0.28950
C2445       C  0.80928412  0.82024924  0.43767803    -0.05050
C2446       C  0.79818354  0.81189758  0.45571684     0.07170
C2447       C  0.79444403  0.83089010  0.46250323     0.00960
H2448       H  0.81392801  0.80988791  0.42752620     0.08620
H2449       H  0.78502123  0.83057680  0.47581509     0.07690
N2450       N  0.82938034  0.88514130  0.38391586    -0.36140
N2451       N  0.82644689  0.90497057  0.38257969    -0.28320
C2452       C  0.83022032  0.91301076  0.36416206    -0.03560
C2453       C  0.83551306  0.89731107  0.35336179     0.05050
C2454       C  0.83501401  0.88000208  0.36644323     0.03140
H2455       H  0.82840718  0.92861072  0.35893090     0.08250
H2456       H  0.83839417  0.86468163  0.36360674     0.07080
N2457       N  0.89690052  0.87800166  0.19704560    -0.27310
N2458       N  0.90506639  0.89321526  0.18169051    -0.35170
C2459       C  0.91503438  0.88438021  0.16890621     0.01030
C2460       C  0.91298402  0.86249309  0.17650268     0.07060
C2461       C  0.90136296  0.85891804  0.19436324    -0.06040
H2462       H  0.92279131  0.89302949  0.15494848     0.07730
H2463       H  0.89632676  0.84351546  0.20456429     0.08930
Cu2464     Cu  0.90204263  0.92505939  0.17826337     0.44170
Cu2465     Cu  0.88030603  0.88436708  0.22079009     0.41990
Cu2466     Cu  0.87350412  0.94017492  0.21671929     0.43880
N2467       N  0.89889876  0.95705846  0.17797969    -0.34690
N2468       N  0.88851975  0.96282144  0.19224837    -0.28950
C2469       C  0.89133206  0.98580120  0.18855811    -0.05050
C2470       C  0.90403503  0.99481109  0.17107544     0.07170
C2471       C  0.90844078  0.97607866  0.16473223     0.00960
H2472       H  0.88536309  0.99558644  0.19817758     0.08620
H2473       H  0.91878421  0.97672874  0.15184637     0.07690
N2474       N  0.86436120  0.91743081  0.24108068    -0.36140
N2475       N  0.86692308  0.89738940  0.24271095    -0.28320
C2476       C  0.86136943  0.88859492  0.26093937    -0.03560
C2477       C  0.85529359  0.90400883  0.27132611     0.05050
C2478       C  0.85715737  0.92191609  0.25816276     0.03140
H2479       H  0.86282256  0.87287986  0.26642157     0.08250
H2480       H  0.85398262  0.93742623  0.26073333     0.07080
O2481       O  0.78627279  0.48115333  0.45360715    -0.72960
O2482       O  0.77065156  0.52812397  0.48234413    -0.73940
O2483       O  0.81392966  0.52243321  0.48016111    -0.62560
O2484       O  0.74312270  0.98683347  0.45574150    -0.70970
O2485       O  0.72714466  0.95918123  0.48029614    -0.70520
O2486       O  0.79802017  0.99489977  0.50478810    -0.61780
O2487       O  0.75473667  0.00042008  0.50688422    -0.74290
O2488       O  0.77047349  0.95353636  0.47820206    -0.73070
Cu2489     Cu  0.77908763  0.50564653  0.46713350     1.04560
Cu2490     Cu  0.76200609  0.97599808  0.49337866     1.04330
C2491       C  0.78103524  0.96001622  0.46153427     0.93240
C2492       C  0.75998084  0.52156626  0.49897594     0.92380
C2493       C  0.81721163  0.51430063  0.49617234     0.84520
C2494       C  0.72391006  0.96740148  0.46430312     0.90790
N2495       N  0.73811250  0.55410105  0.53002194    -0.27310
N2496       N  0.74507626  0.56879226  0.51442237    -0.35170
C2497       C  0.75441766  0.55978234  0.50124342     0.01030
C2498       C  0.75316455  0.03830156  0.50885375     0.07060
C2499       C  0.74270401  0.03516278  0.52711499    -0.06040
H2500       H  0.76114866  0.56799665  0.48702876     0.07730
H2501       H  0.73855008  0.02015389  0.53745043     0.08930
Cu2502     Cu  0.74115028  0.60004427  0.51127474     0.44170
Cu2503     Cu  0.72296825  0.56092152  0.55441726     0.41990
Cu2504     Cu  0.71535239  0.61614057  0.55120259     0.43880
N2505       N  0.73738512  0.63159075  0.51136614    -0.34690
N2506       N  0.72797979  0.63768698  0.52611407    -0.28950
C2507       C  0.73048933  0.66053862  0.52251683    -0.05050
C2508       C  0.74201933  0.66912123  0.50462160     0.07170
C2509       C  0.74602421  0.65027495  0.49792336     0.00960
H2510       H  0.72546701  0.67070408  0.53256091     0.08620
H2511       H  0.75576272  0.65076223  0.48473522     0.07690
N2512       N  0.70831224  0.59427180  0.57577555    -0.36140
N2513       N  0.71101287  0.57428699  0.57704455    -0.28320
C2514       C  0.70684228  0.56592719  0.59539207    -0.03560
C2515       C  0.70132873  0.58146318  0.60619194     0.05050
C2516       C  0.70245529  0.59920245  0.59323615     0.03140
H2517       H  0.70908073  0.55059083  0.60058364     0.08250
H2518       H  0.69989740  0.61502876  0.59632769     0.07080
N2519       N  0.64420294  0.60642780  0.76262775    -0.27310
N2520       N  0.63545507  0.59086946  0.77778997    -0.35170
C2521       C  0.62540111  0.59967815  0.79052082     0.01030
C2522       C  0.62798779  0.62188909  0.78307668     0.07060
C2523       C  0.64001357  0.62568457  0.76536863    -0.06040
H2524       H  0.61725117  0.59080596  0.80435342     0.07730
H2525       H  0.64558328  0.64139570  0.75533886     0.08930
Cu2526     Cu  0.63791263  0.55865131  0.78104318     0.44170
Cu2527     Cu  0.66133496  0.60040124  0.73909946     0.41990
Cu2528     Cu  0.66692859  0.54384739  0.74271479     0.43880
N2529       N  0.64075122  0.52645343  0.78117182    -0.34690
N2530       N  0.65127659  0.52079286  0.76694597    -0.28950
C2531       C  0.64837704  0.49775694  0.77057187    -0.05050
C2532       C  0.63547827  0.48860946  0.78797353     0.07170
C2533       C  0.63103269  0.50731181  0.79432891     0.00960
H2534       H  0.65453130  0.48808660  0.76100107     0.08620
H2535       H  0.62063348  0.50661060  0.80719646     0.07690
N2536       N  0.67712378  0.56733471  0.71867318    -0.36140
N2537       N  0.67505177  0.58769542  0.71722798    -0.28320
C2538       C  0.68080819  0.59675012  0.69907009    -0.03560
C2539       C  0.68671766  0.58129066  0.68856538     0.05050
C2540       C  0.68420206  0.56289517  0.70152547     0.03140
H2541       H  0.67911137  0.61235362  0.69370750     0.08250
H2542       H  0.68633524  0.54676924  0.69857020     0.07080
O2543       O  0.62639741  0.65988689  0.78498431    -0.72960
O2544       O  0.61017722  0.70646033  0.81403703    -0.73940
O2545       O  0.65359693  0.70098110  0.81172825    -0.62560
O2546       O  0.58299289  0.66538518  0.78703827    -0.70970
O2547       O  0.56682251  0.63758682  0.81150012    -0.70520
O2548       O  0.63751637  0.67289948  0.83602408    -0.61780
O2549       O  0.59434209  0.67842952  0.83837265    -0.74290
O2550       O  0.61002591  0.63186783  0.80931302    -0.73070
Cu2551     Cu  0.61887002  0.68420170  0.79860235     1.04560
Cu2552     Cu  0.60158036  0.65418629  0.82461616     1.04330
C2553       C  0.62100368  0.63861845  0.79280348     0.93240
C2554       C  0.59960177  0.69970499  0.83070694     0.92380
C2555       C  0.65674372  0.69251321  0.82761600     0.84520
C2556       C  0.56372074  0.64589434  0.79550575     0.90790
C2557       C  0.69767809  0.58115222  0.62728652    -0.05480
C2558       C  0.70636273  0.60464441  0.63700639    -0.32910
C2559       C  0.70312692  0.60509175  0.65693868     0.36340
C2560       C  0.69104170  0.58174742  0.66753992    -0.05840
C2561       C  0.68246904  0.55827559  0.65781773    -0.32810
C2562       C  0.68573060  0.55783469  0.63789863     0.36240
H2563       H  0.71609010  0.62287696  0.62919601     0.16610
O2564       O  0.71292340  0.62855942  0.66599729    -0.60310
H2565       H  0.67264651  0.54001093  0.66558189     0.16630
O2566       O  0.67591234  0.53436169  0.62884544    -0.60410
H2567       H  0.68800256  0.52883938  0.63215436     0.43620
H2568       H  0.70100659  0.63422851  0.66249980     0.43580
C2569       C  0.84018641  0.89864673  0.33233904    -0.05480
C2570       C  0.85207088  0.92279615  0.32300385    -0.32910
C2571       C  0.85690556  0.92489208  0.30316756     0.36340
C2572       C  0.84979232  0.90251658  0.29223924    -0.05840
C2573       C  0.83773641  0.87833183  0.30155765    -0.32810
C2574       C  0.83292264  0.87624572  0.32140609     0.36240
H2575       H  0.85815893  0.94030200  0.33116765     0.16610
O2576       O  0.86993251  0.94910843  0.29488612    -0.60310
H2577       H  0.83172733  0.86084067  0.29339939     0.16630
O2578       O  0.81997328  0.85206134  0.32974617    -0.60410
H2579       H  0.83280034  0.84688897  0.33022588     0.43620
H2580       H  0.85704878  0.95419449  0.29420688     0.43580
C2581       C  0.94064206  0.57873144  0.62472407    -0.05480
C2582       C  0.95454764  0.60278267  0.63432582    -0.32910
C2583       C  0.95587401  0.60405704  0.65445587     0.36340
C2584       C  0.94342149  0.58099532  0.66544597    -0.05840
C2585       C  0.92961702  0.55695082  0.65582531    -0.32810
C2586       C  0.92827835  0.55568159  0.63570640     0.36240
H2587       H  0.96395131  0.62079345  0.62625122     0.16610
O2588       O  0.96893637  0.62799796  0.66316443    -0.60310
H2589       H  0.92021142  0.53892365  0.66387598     0.16630
O2590       O  0.91522116  0.53174572  0.62698873    -0.60410
H2591       H  0.92864265  0.52770349  0.62443532     0.43620
H2592       H  0.95554650  0.63211229  0.66561550     0.43580
C2593       C  0.93831749  0.82413730  0.62661475    -0.05480
C2594       C  0.94748287  0.81317007  0.63947096    -0.32910
C2595       C  0.95035353  0.81935736  0.65913015     0.36340
C2596       C  0.94402866  0.83685917  0.66631984    -0.05840
C2597       C  0.93494182  0.84789208  0.65344918    -0.32810
C2598       C  0.93206073  0.84169212  0.63378840     0.36240
H2599       H  0.95195742  0.79926928  0.63436765     0.16610
O2600       O  0.95803939  0.80711401  0.67130932    -0.60310
H2601       H  0.93043535  0.86176742  0.65855691     0.16630
O2602       O  0.92433552  0.85388924  0.62159481    -0.60410
H2603       H  0.90551433  0.84583429  0.62422108     0.43620
H2604       H  0.97687989  0.81521589  0.66873651     0.43580
C2605       C  0.60285637  0.65764314  0.33303809    -0.05480
C2606       C  0.57778573  0.64494312  0.32503335    -0.32910
C2607       C  0.57350957  0.63720000  0.30568741     0.36340
C2608       C  0.59458228  0.64241140  0.29377246    -0.05840
C2609       C  0.61962741  0.65500207  0.30180624    -0.32810
C2610       C  0.62390184  0.66272685  0.32114542     0.36240
H2611       H  0.56125804  0.64056276  0.33388527     0.16610
O2612       O  0.54852877  0.62409097  0.29878061    -0.60310
H2613       H  0.63618436  0.65946832  0.29295967     0.16630
O2614       O  0.64889425  0.67585489  0.32802913    -0.60410
H2615       H  0.65556033  0.69454107  0.32623452     0.43620
H2616       H  0.54191664  0.60539734  0.30043953     0.43580
C2617       C  0.60135363  0.90632356  0.33525218    -0.05480
C2618       C  0.62435594  0.91818115  0.32427258    -0.32910
C2619       C  0.62354232  0.91777510  0.30412178     0.36340
C2620       C  0.59941192  0.90561300  0.29449198    -0.05840
C2621       C  0.57641561  0.89382534  0.30546536    -0.32810
C2622       C  0.57722684  0.89426413  0.32561341     0.36240
H2623       H  0.64312091  0.92727698  0.33128637     0.16610
O2624       O  0.64648899  0.92885172  0.29405289    -0.60310
H2625       H  0.55765546  0.88470038  0.29843681     0.16630
O2626       O  0.55427315  0.88323974  0.33566664    -0.60410
H2627       H  0.55164007  0.89765185  0.33806816     0.43620
H2628       H  0.64922722  0.91449683  0.29171499     0.43580
C2629       C  0.52904723  0.74799313  0.96042927    -0.05480
C2630       C  0.01628584  0.72243145  0.96752674    -0.32910
C2631       C  0.00824606  0.71680930  0.98678735     0.36340
C2632       C  0.51317931  0.73697708  0.99955350    -0.05840
C2633       C  0.52595167  0.76254353  0.99245303    -0.32810
C2634       C  0.53397272  0.76816031  0.97318683     0.36240
H2635       H  0.01201865  0.70653712  0.95801863     0.16610
O2636       O  0.99505088  0.69140330  0.99275635    -0.60310
H2637       H  0.53022773  0.77844407  0.00195605     0.16630
O2638       O  0.54713756  0.79355781  0.96719719    -0.60410
H2639       H  0.56583200  0.80013554  0.96891234     0.43620
H2640       H  0.97636359  0.68484409  0.99102217     0.43580
C2641       C  0.76734240  0.98902053  0.00053526    -0.05480
C2642       C  0.79119980  0.49911693  0.99091202    -0.32910
C2643       C  0.79232978  0.49885506  0.97081930     0.36340
C2644       C  0.76929810  0.98807592  0.95994346    -0.05840
C2645       C  0.74542634  0.97790603  0.96956659    -0.32810
C2646       C  0.74430062  0.97818042  0.98966594     0.36240
H2647       H  0.80922043  0.50791655  0.99893204     0.16610
O2648       O  0.81614189  0.50972954  0.96201399    -0.60310
H2649       H  0.72741889  0.96916130  0.96153360     0.16630
O2650       O  0.72050769  0.96738977  0.99848694    -0.60410
H2651       H  0.71469200  0.94906533  0.00107316     0.43620
H2652       H  0.82193545  0.52806149  0.95948861     0.43580
C2653       C  0.77096098  0.74623848  0.95894099    -0.05480
C2654       C  0.79494574  0.75822572  0.96854639    -0.32910
C2655       C  0.79614978  0.75465973  0.98834891     0.36340
C2656       C  0.77303069  0.73912967  0.99909518    -0.05840
C2657       C  0.74904985  0.72718744  0.98948938    -0.32810
C2658       C  0.74784617  0.73075107  0.96969508     0.36240
H2659       H  0.81296260  0.77000311  0.96060869     0.16610
O2660       O  0.82012732  0.76599083  0.99685997    -0.60310
H2661       H  0.73102316  0.71541808  0.99741614     0.16630
O2662       O  0.72386401  0.71944427  0.96119396    -0.60410
H2663       H  0.71950310  0.73287407  0.96165986     0.43620
H2664       H  0.82454096  0.75260139  0.99635446     0.43580
loop_ 
_geom_bond_atom_site_label_1 
_geom_bond_atom_site_label_2 
_geom_bond_distance 
_geom_bond_site_symmetry_2 
_ccdc_geom_bond_type 
N1            N2   1.323       .  A
N1            C5   1.350       .  A
N1           Cu9   2.092       .  S
N2            C3   1.342       .  A
N2           Cu8   2.064       .  S
C3            C4   1.379       .  A
C3            H6   1.082       .  S
C4            C5   1.388       .  A
C4          C295   1.473       .  S
C5            H7   1.082       .  S
Cu8          N11   2.064       .  S
Cu9          N19   2.093       .  S
Cu10         N12   2.070       .  S
Cu10         N18   2.071       .  S
N11          N12   1.320       .  A
N11          C15   1.343       .  A
N12          C13   1.346       .  A
C13          C14   1.385       .  A
C13          H16   1.082       .  S
C14          C15   1.382       .  A
C14         C434   1.469       .  S
C15          H17   1.082       .  S
N18          N19   1.323       .  A
N18          C22   1.343       .  A
N19          C20   1.347       .  A
C20          C21   1.389       .  A
C20          H23   1.082       .  S
C21          C22   1.384       .  A
C21         C658   1.486   1_554  S
C22          H24   1.081       .  S
N25          N26   1.323       .  A
N25          C29   1.350       .  A
N25         Cu33   2.092       .  S
N26          C27   1.342       .  A
N26         Cu32   2.064       .  S
C27          C28   1.379       .  A
C27          H30   1.082       .  S
C28          C29   1.388       .  A
C28         C371   1.472       .  S
C29          H31   1.082       .  S
Cu32         N35   2.064       .  S
Cu33         N43   2.093       .  S
Cu34         N36   2.069       .  S
Cu34         N42   2.070       .  S
N35          N36   1.320       .  A
N35          C39   1.343       .  A
N36          C37   1.346       .  A
C37          C38   1.384       .  A
C37          H40   1.082       .  S
C38          C39   1.382       .  A
C38         C557   1.468       .  S
C39          H41   1.082       .  S
N42          N43   1.323       .  A
N42          C46   1.343       .  A
N43          C44   1.348       .  A
C44          C45   1.389       .  A
C44          H47   1.082       .  S
C45          C46   1.384       .  A
C45         C655   1.486       .  S
C46          H48   1.081       .  S
O49         Cu57   2.013       .  S
O49          C59   1.278       .  A
O50         Cu57   2.009       .  S
O50          C60   1.278       .  A
O51         Cu57   2.007       .  S
O51          C61   1.277       .  A
O52         Cu57   2.002       .  S
O52          C62   1.277       .  A
O53         Cu58   2.006       .  S
O53          C62   1.277       .  A
O54         Cu58   2.002       .  S
O54          C61   1.277       .  A
O55         Cu58   2.012       .  S
O55          C60   1.277       .  A
O56         Cu58   2.008       .  S
O56          C59   1.278       .  A
Cu57        Cu58   2.377       .  S
C59         C324   1.469       .  S
C60         C248   1.469       .  S
C61         C510   1.465       .  S
C62         C448   1.465       .  S
O63         Cu71   2.014       .  S
O63          C73   1.278       .  A
O64         Cu71   2.010       .  S
O64          C74   1.278       .  A
O65         Cu71   2.009       .  S
O65          C75   1.277       .  A
O66         Cu71   2.004       .  S
O66          C76   1.277       .  A
O67         Cu72   2.013       .  S
O67          C76   1.278       .  A
O68         Cu72   2.010       .  S
O68          C75   1.278       .  A
O69         Cu72   2.004       .  S
O69          C74   1.276       .  A
O70         Cu72   1.999       .  S
O70          C73   1.276       .  A
Cu71        Cu72   2.377       .  S
C73         C114   1.466       .  S
C74         C348   1.467       .  S
C75         C162   1.469       .  S
C76        C1200   1.467       .  S
N77          N78   1.322       .  A
N77          C81   1.346       .  A
N77         Cu85   2.070       .  S
N78          C79   1.343       .  A
N78         Cu84   2.066       .  S
C79          C80   1.381       .  A
C79         H748   1.082       .  S
C80          C81   1.383       .  A
C80         C960   1.466       .  S
C81          H83   1.082       .  S
H82         C745   1.082       .  S
Cu84         N87   2.066       .  S
Cu85         N95   2.070       .  S
Cu86         N88   2.066       .  S
Cu86         N94   2.065       .  S
N87          N88   1.321       .  A
N87          C91   1.342       .  A
N88          C89   1.346       .  A
C89          C90   1.383       .  A
C89          H92   1.082       .  S
C90          C91   1.381       .  A
C90         C851   1.466       .  S
C91         H759   1.082       .  S
H93         C757   1.082       .  S
N94          N95   1.322       .  A
N94          C98   1.342       .  A
N95          C96   1.344       .  A
C96          C97   1.385       .  A
C96          H99   1.081       .  S
C97          C98   1.383       .  A
C97         C643   1.478       .  S
C98         H100   1.082       .  S
N101        N102   1.322       .  A
N101        C105   1.345       .  A
N101       Cu109   2.068       .  S
N102        C103   1.343       .  A
N102       Cu108   2.069       .  S
C103        C104   1.381       .  A
C103        H106   1.082       .  S
C104        C105   1.383       .  A
C104        C370   1.466       .  S
C105        H107   1.082       .  S
Cu108       N111   2.069       .  S
Cu109       N119   2.068       .  S
Cu110       N112   2.065       .  S
Cu110       N118   2.065       .  S
N111        N112   1.321       .  A
N111        C115   1.343       .  A
N112        C113   1.345       .  A
C113        C114   1.382       .  A
C113        H116   1.082       .  S
C114        C115   1.382       .  A
C115        H117   1.082       .  S
N118        N119   1.322       .  A
N118        C788   1.342       .  A
N119        C786   1.343       .  A
C120        N785   1.343       .  A
C120        C121   1.385       .  A
C120        H123   1.081       .  S
C121        C122   1.383       .  A
C121       C1312   1.478       .  S
C122        N784   1.342       .  A
C122        H124   1.082       .  S
N125        N126   1.321       .  A
N125        C129   1.346       .  A
N125       Cu133   2.078       .  S
N126       C1459   1.344       .  A
N126       Cu132   2.062       .  S
C127       N1458   1.344       .  A
C127        C128   1.381       .  A
C127        H130   1.082       .  S
C128       C1461   1.385       .  A
C128        C431   1.468       .  S
C129       C1460   1.385       .  A
C129        H131   1.082       .  S
Cu132       N135   2.062       .  S
Cu133       N143   2.078       .  S
Cu134       N136   2.083       .  S
Cu134       N142   2.083       .  S
N135        N136   1.322       .  A
N135       C1471   1.343       .  A
N136        C137   1.348       .  A
C137       C1470   1.386       .  A
C137        H140   1.082       .  S
C138        C139   1.380       .  A
C138       C1469   1.386       .  A
C138        C183   1.469       .  S
C139       N1467   1.343       .  A
C139        H141   1.082       .  S
N142        N143   1.323       .  A
N142        C146   1.346   1_655  A
N143        C144   1.345       .  A
C144        C145   1.386   1_655  A
C144        H147   1.082       .  S
C145        C146   1.388       .  A
C145        C634   1.488   1_554  S
C146        H148   1.081       .  S
N149        N150   1.321       .  A
N149        C153   1.346       .  A
N149       Cu157   2.078       .  S
N150        C151   1.343       .  A
N150       Cu156   2.061       .  S
C151        C152   1.380       .  A
C151        H154   1.082       .  S
C152        C153   1.385       .  A
C152        C556   1.468       .  S
C153        H155   1.082       .  S
Cu156       N159   2.061       .  S
Cu157       N167   2.078       .  S
Cu158       N160   2.083       .  S
Cu158       N166   2.083       .  S
N159        N160   1.322       .  A
N159        C163   1.342       .  A
N160        C161   1.348       .  A
C161        C162   1.386       .  A
C161        H164   1.082       .  S
C162        C163   1.380       .  A
C163        H165   1.082       .  S
N166        N167   1.323       .  A
N166        C170   1.346       .  A
N167        C168   1.345       .  A
C168        C169   1.386       .  A
C168        H171   1.082       .  S
C169        C170   1.388       .  A
C169        C631   1.487       .  S
C170        H172   1.081       .  S
O173       Cu181   2.010       .  S
O173        C183   1.277       .  A
O174       Cu181   2.004       .  S
O174        C850   1.277       .  A
O175       Cu181   2.013       .  S
O175        C185   1.278       .  A
O176       Cu181   2.010       .  S
O176        C186   1.278       .  A
O177       Cu182   2.005       .  S
O177        C186   1.276       .  A
O178       Cu182   1.999       .  S
O178        C185   1.276       .  A
O179       Cu182   2.012       .  S
O179        C850   1.278       .  A
O180       Cu182   2.009       .  S
O180        C183   1.278       .  A
Cu181      Cu182   2.377       .  S
C184        C472   1.467       .  S
C184        O840   1.277       .  A
C184        O845   1.278       .  A
C185        C756   1.466       .  S
C186       C1604   1.467       .  S
N187        N188   1.322       .  A
N187        C857   1.348       .  A
N187       Cu195   2.082       .  S
N188        C189   1.343       .  A
N188       Cu194   2.065       .  S
C189        C856   1.380       .  A
C189        H192   1.082       .  S
C190        C191   1.386       .  A
C190        C855   1.380       .  A
C190       C1162   1.471       .  S
C191        N853   1.348       .  A
C191        H193   1.082       .  S
Cu194       N197   2.065       .  S
Cu195       N205   2.082       .  S
Cu196       N198   2.073       .  S
Cu196       N204   2.073       .  S
N197        N198   1.321       .  A
N197        C201   1.343       .  A
N198       C1531   1.347       .  A
C199       N1530   1.347       .  A
C199        C200   1.385       .  A
C199        H202   1.082       .  S
C200       C1533   1.381       .  A
C200       C1641   1.469       .  S
C201       C1532   1.381       .  A
C201        H203   1.082       .  S
N204        N205   1.323       .  A
N204        C208   1.344       .  A
N205        C206   1.345       .  A
C206        C207   1.387       .  A
C206        H209   1.082       .  S
C207        C208   1.385       .  A
C207        C619   1.484       .  S
C208        H210   1.081       .  S
N211        N212   1.322       .  A
N211       C1547   1.349       .  A
N211       Cu219   2.082       .  S
N212        C213   1.342       .  A
N212       Cu218   2.064       .  S
C213       C1546   1.380       .  A
C213        H216   1.082       .  S
C214        C215   1.386       .  A
C214       C1545   1.380       .  A
C214        C433   1.470       .  S
C215       N1543   1.349       .  A
C215        H217   1.082       .  S
Cu218       N221   2.064       .  S
Cu219       N229   2.082       .  S
Cu220       N222   2.075       .  S
Cu220       N228   2.075       .  S
N221        N222   1.321       .  A
N221        C225   1.343       .  A
N222        C889   1.347       .  A
C223        N888   1.347       .  A
C223        C224   1.385       .  A
C223        H226   1.082   1_565  S
C224        C891   1.381       .  A
C224        C296   1.470   1_565  S
C225        C890   1.381       .  A
C225        H227   1.082       .  S
N228        N229   1.323       .  A
N228        C232   1.344       .  A
N229        C230   1.345       .  A
C230        C231   1.387       .  A
C230        H233   1.082       .  S
C231        C232   1.385       .  A
C231        C622   1.484       .  S
C232        H234   1.081       .  S
N235        N236   1.322       .  A
N235        C239   1.348       .  A
N235       Cu243   2.082       .  S
N236        C237   1.343       .  A
N236       Cu242   2.066       .  S
C237        C238   1.381       .  A
C237        H240   1.082       .  S
C238        C239   1.386       .  A
C238        C308   1.470       .  S
C239        H241   1.082       .  S
Cu242       N245   2.065       .  S
Cu243       N253   2.083       .  S
Cu244       N246   2.076       .  S
Cu244       N252   2.077       .  S
N245        N246   1.321       .  A
N245        C249   1.343       .  A
N246        C247   1.347       .  A
C247        C248   1.385       .  A
C247        H250   1.082       .  S
C248        C249   1.381       .  A
C249        H251   1.082       .  S
N252        N253   1.323       .  A
N252        C256   1.344       .  A
N253        C254   1.346       .  A
C254        C255   1.387       .  A
C254        H257   1.082       .  S
C255        C256   1.386       .  A
C255        C607   1.486       .  S
C256        H258   1.081       .  S
N259        N260   1.322       .  A
N259        C263   1.347       .  A
N259       Cu267   2.081       .  S
N260        C261   1.343       .  A
N260       Cu266   2.061       .  S
C261        C262   1.380       .  A
C261        H264   1.082       .  S
C262        C263   1.385       .  A
C262        C293   1.468       .  S
C263        H265   1.082       .  S
Cu266       N269   2.061       .  S
Cu267       N277   2.081       .  S
Cu268       N270   2.076       .  S
Cu268       N276   2.076       .  S
N269        N270   1.321       .  A
N269        C273   1.343       .  A
N270        C271   1.346       .  A
C271        C272   1.385       .  A
C271        H274   1.082   1_455  S
C272        C273   1.380       .  A
C272       C1518   1.467   1_455  S
C273        H275   1.082       .  S
N276        N277   1.323       .  A
N276        C280   1.345       .  A
N277        C278   1.345       .  A
C278        C279   1.387       .  A
C278        H281   1.082       .  S
C279        C280   1.387       .  A
C279        C610   1.486       .  S
C280        H282   1.081       .  S
O283       Cu291   2.005       .  S
O283        C293   1.276       .  A
O284       Cu291   2.005       .  S
O284        C294   1.277       .  A
O285       Cu291   2.012       .  S
O285        C295   1.279       .  A
O286       Cu291   2.011       .  S
O286        C296   1.277       .  A
O287       Cu958   2.013       .  S
O287        C962   1.278       .  A
O288       Cu292   2.017       .  S
O288        C295   1.277       .  A
O289       Cu292   2.006       .  S
O289        C294   1.277       .  A
O290       Cu292   2.011       .  S
O290        C293   1.279       .  A
Cu291      Cu292   2.376       .  S
Cu292       O953   2.013       .  S
C294        C746   1.466       .  S
C296        O953   1.278       .  A
O297       Cu305   2.011       .  S
O297        C307   1.277   1_455  A
O298       Cu305   2.011       .  S
O298        C308   1.278       .  A
O299       Cu305   2.008       .  S
O299        C309   1.278       .  A
O300       Cu305   2.010       .  S
O300       C1642   1.277   1_455  A
O301       Cu306   2.009       .  S
O301        C310   1.278       .  A
O302      Cu1638   2.011       .  S
O302        C309   1.277       .  A
O303      Cu1638   2.011       .  S
O303        C308   1.277       .  A
O304       Cu306   2.012       .  S
O304       C1639   1.278       .  A
Cu305     Cu1638   2.376       .  S
Cu306      O1634   2.011       .  S
Cu306      O1635   2.011       .  S
Cu306     Cu1637   2.376       .  S
C307        C314   1.470       .  S
C307       O1636   1.278       .  A
C309       C1532   1.469       .  S
C310       C1718   1.468       .  S
C310       O1632   1.277       .  A
N311        N312   1.322       .  A
N311       C1647   1.348       .  A
N311       Cu319   2.083       .  S
N312        C313   1.343       .  A
N312       Cu318   2.066       .  S
C313       C1646   1.381       .  A
C313        H316   1.082       .  S
C314        C315   1.386       .  A
C314       C1645   1.381       .  A
C315       N1643   1.348       .  A
C315        H317   1.082       .  S
Cu318       N321   2.066       .  S
Cu319       N329   2.083       .  S
Cu320       N322   2.077       .  S
Cu320       N328   2.077       .  S
N321        N322   1.321       .  A
N321        C325   1.343       .  A
N322        C323   1.347       .  A
C323        C324   1.385       .  A
C323        H326   1.082       .  S
C324        C325   1.381       .  A
C325        H327   1.082       .  S
N328        N329   1.323       .  A
N328        C332   1.345       .  A
N329        C330   1.346       .  A
C330        C331   1.387       .  A
C330        H333   1.082       .  S
C331        C332   1.385       .  A
C331        C595   1.484       .  S
C332        H334   1.081       .  S
N335        N336   1.322       .  A
N335        C339   1.347       .  A
N335       Cu343   2.083       .  S
N336        C337   1.342       .  A
N336       Cu342   2.059       .  S
C337        C338   1.379       .  A
C337        H340   1.082       .  S
C338        C339   1.386       .  A
C338        C369   1.468       .  S
C339        H341   1.082       .  S
Cu342       N345   2.059       .  S
Cu343       N353   2.083       .  S
Cu344       N346   2.076       .  S
Cu344       N352   2.076       .  S
N345        N346   1.321       .  A
N345        C349   1.343       .  A
N346       C1679   1.346       .  A
C347       N1678   1.346       .  A
C347        C348   1.385       .  A
C347        H350   1.082       .  S
C348       C1681   1.380       .  A
C349       C1680   1.380       .  A
C349        H351   1.082       .  S
N352        N353   1.323       .  A
N352        C356   1.345       .  A
N353        C354   1.346       .  A
C354        C355   1.387       .  A
C354        H357   1.082       .  S
C355        C356   1.385       .  A
C355        C598   1.485       .  S
C356        H358   1.081       .  S
O359       Cu367   2.013       .  S
O359        C369   1.279       .  A
O360       Cu367   2.008       .  S
O360        C370   1.277       .  A
O361       Cu367   2.013       .  S
O361        C371   1.277       .  A
O362       Cu367   2.009       .  S
O362        C372   1.278       .  A
O363       Cu368   2.014       .  S
O363        C372   1.278       .  A
O364       Cu368   2.016       .  S
O364        C371   1.279       .  A
O365       Cu368   2.004       .  S
O365        C370   1.277       .  A
O366       Cu368   2.004       .  S
O366        C369   1.276       .  A
Cu367      Cu368   2.376       .  S
C372        C410   1.470       .  S
N373        N374   1.322       .  A
N373       C1043   1.348       .  A
N373       Cu381   2.081       .  S
N374        C375   1.343       .  A
N374       Cu380   2.066       .  S
C375       C1042   1.381       .  A
C375        H378   1.082       .  S
C376        C377   1.386       .  A
C376       C1041   1.381       .  A
C376       C1161   1.471       .  S
C377       N1039   1.348       .  A
C377        H379   1.082       .  S
Cu380       N383   2.065       .  S
Cu381       N391   2.082       .  S
Cu382       N390   2.072       .  S
Cu382      N1716   2.071       .  S
N383       N1716   1.321       .  A
N383       C1719   1.343       .  A
N384       N1715   1.321       .  A
N384        C385   1.346       .  A
N384      Cu1714   2.071       .  S
C385        C386   1.384       .  A
C385        H388   1.082   1_655  S
C386        C387   1.381       .  A
C386       C1642   1.468       .  S
C387       N1715   1.343       .  A
C387        H389   1.082       .  S
N390        N391   1.323       .  A
N390        C394   1.343       .  A
N391        C392   1.345       .  A
C392        C393   1.387       .  A
C392        H395   1.081       .  S
C393        C394   1.384       .  A
C393        C583   1.483       .  S
C394       H1728   1.082       .  S
H396       C1726   1.082       .  S
N397        N398   1.322   1_455  A
N397        C401   1.348       .  A
N397      Cu1737   2.080   1_455  S
N398        C399   1.342   1_655  A
N398      Cu1736   2.065       .  S
C399        C400   1.380       .  A
C399        H402   1.082       .  S
C400        C401   1.386       .  A
C400        C558   1.470       .  S
C401        H403   1.082       .  S
Cu404       N407   2.065       .  S
Cu404      N1730   2.065       .  S
Cu405       N415   2.081       .  S
Cu405      N1729   2.080       .  S
Cu406       N408   2.073       .  S
Cu406       N414   2.074       .  S
N407        N408   1.321       .  A
N407        C411   1.343       .  A
N408       C1075   1.347   1_545  A
C409       N1074   1.347       .  A
C409        C410   1.385       .  A
C409        H412   1.082       .  S
C410       C1077   1.381       .  A
C411       C1076   1.381   1_545  A
C411        H413   1.082       .  S
N414        N415   1.323       .  A
N414        C418   1.343       .  A
N415        C416   1.346       .  A
C416        C417   1.387       .  A
C416       H1751   1.081       .  S
C417        C418   1.385       .  A
C417        C586   1.484       .  S
C418        H420   1.082       .  S
H419       C1748   1.081       .  S
O421       Cu429   2.003       .  S
O421        C431   1.276       .  A
O422       Cu429   2.004       .  S
O422        C432   1.277       .  A
O423       Cu429   2.008       .  S
O423        C433   1.278       .  A
O424       Cu429   2.009       .  S
O424        C434   1.277       .  A
O425       Cu430   2.012       .  S
O425        C434   1.278       .  A
O426       Cu430   2.015       .  S
O426        C433   1.277       .  A
O427       Cu430   2.012       .  S
O427        C432   1.277       .  A
O428       Cu430   2.014       .  S
O428        C431   1.279       .  A
Cu429      Cu430   2.376       .  S
C432        C462   1.468       .  S
N435        N436   1.322       .  A
N435        C439   1.346       .  A
N435       Cu443   2.075       .  S
N436        C437   1.343       .  A
N436       Cu442   2.064       .  S
C437        C438   1.380       .  A
C437        H440   1.082       .  S
C438        C439   1.384       .  A
C438        C493   1.466       .  S
C439        H441   1.082       .  S
Cu442       N445   2.064       .  S
Cu443       N453   2.075       .  S
Cu444       N446   2.064       .  S
Cu444       N452   2.064       .  S
N445        N446   1.321       .  A
N445        C449   1.343       .  A
N446        C447   1.344       .  A
C447        C448   1.382       .  A
C447        H450   1.082       .  S
C448        C449   1.381       .  A
C449        H451   1.082       .  S
N452        N453   1.322       .  A
N452        C456   1.342       .  A
N453        C454   1.344       .  A
C454        C455   1.386       .  A
C454        H457   1.082       .  S
C455        C456   1.384       .  A
C455        C571   1.480       .  S
C456        H458   1.081       .  S
N459        N460   1.322       .  A
N459        C463   1.347       .  A
N459       Cu467   2.077       .  S
N460        C461   1.342       .  A
N460       Cu466   2.068       .  S
C461        C462   1.381       .  A
C461        H464   1.082       .  S
C462        C463   1.385       .  A
C463        H465   1.082       .  S
Cu466       N469   2.068       .  S
Cu467       N477   2.077       .  S
Cu468       N470   2.066       .  S
Cu468       N476   2.066       .  S
N469        N470   1.321       .  A
N469        C473   1.343       .  A
N470        C471   1.345       .  A
C471        C472   1.383       .  A
C471        H474   1.082       .  S
C472        C473   1.382       .  A
C473        H475   1.082       .  S
N476        N477   1.322       .  A
N476        C480   1.342       .  A
N477        C478   1.345       .  A
C478        C479   1.386       .  A
C478        H481   1.082       .  S
C479        C480   1.384       .  A
C479        C574   1.481       .  S
C480        H482   1.081       .  S
O483       Cu491   2.006   1_565  S
O483       C1159   1.277       .  A
O484       Cu491   2.007       .  S
O484        C494   1.278       .  A
O485       Cu491   2.011       .  S
O485        C495   1.278       .  A
O486      Cu1157   2.011       .  S
O486        C496   1.277       .  A
O487       Cu492   2.013       .  S
O487        C496   1.279       .  A
O488       Cu492   2.014       .  S
O488       C1161   1.277       .  A
O489       Cu492   2.005       .  S
O489       C1160   1.276       .  A
O490       Cu492   2.007       .  S
O490        C493   1.278       .  A
Cu491      O1152   2.011   1_545  S
Cu491     Cu1158   2.376   1_545  S
Cu492     Cu1157   2.376       .  S
C493       O1149   1.277       .  A
C494       C1166   1.466       .  S
C494       O1155   1.276       .  A
C495       C1042   1.471       .  S
C495       O1154   1.277   1_545  A
C496        C856   1.471       .  S
N497        N498   1.322       .  A
N497       C1167   1.346       .  A
N497       Cu505   2.075       .  S
N498        C499   1.342       .  A
N498       Cu504   2.063       .  S
C499       C1166   1.380       .  A
C499        H502   1.082       .  S
C500        C501   1.384       .  A
C500       C1165   1.380       .  A
C500       C1160   1.466       .  S
C501       N1163   1.346       .  A
C501        H503   1.082       .  S
Cu504       N507   2.063       .  S
Cu505       N515   2.075       .  S
Cu506       N508   2.065       .  S
Cu506       N514   2.065       .  S
N507        N508   1.321       .  A
N507        C511   1.343       .  A
N508        C509   1.345       .  A
C509        C510   1.383       .  A
C509        H512   1.082       .  S
C510        C511   1.381       .  A
C511        H513   1.082       .  S
N514        N515   1.322       .  A
N514        C518   1.342       .  A
N515        C516   1.345       .  A
C516        C517   1.386       .  A
C516        H519   1.081       .  S
C517        C518   1.383       .  A
C517        C559   1.479       .  S
C518        H520   1.082       .  S
N521        N522   1.322       .  A
N521        C525   1.347       .  A
N521       Cu529   2.075       .  S
N522        C523   1.342       .  A
N522       Cu528   2.068       .  S
C523        C524   1.381       .  A
C523        H526   1.082       .  S
C524        C525   1.384       .  A
C524        C555   1.468       .  S
C525        H527   1.082       .  S
Cu528       N531   2.068       .  S
Cu529       N539   2.075       .  S
Cu530       N532   2.066       .  S
Cu530       N538   2.066       .  S
N531        N532   1.321       .  A
N531        C535   1.343       .  A
N532        C533   1.345   1_545  A
C533        C534   1.383       .  A
C533        H536   1.082       .  S
C534        C535   1.382   1_565  A
C534        C742   1.467       .  S
C535        H537   1.082       .  S
N538        N539   1.322       .  A
N538        C542   1.342       .  A
N539        C540   1.345       .  A
C540        C541   1.386       .  A
C540        H543   1.081       .  S
C541        C542   1.384       .  A
C541        C562   1.480       .  S
C542        H544   1.082       .  S
O545       Cu553   2.012       .  S
O545        C555   1.278       .  A
O546       Cu553   2.014       .  S
O546        C556   1.279       .  A
O547       Cu553   2.009       .  S
O547        C557   1.278       .  A
O548       Cu553   2.012       .  S
O548        C558   1.277       .  A
O549       Cu554   2.010       .  S
O549        C558   1.278       .  A
O550       Cu554   2.011       .  S
O550        C557   1.277       .  A
O551       Cu554   2.002       .  S
O551        C556   1.276       .  A
O552       Cu554   2.003       .  S
O552        C555   1.277       .  A
Cu553      Cu554   2.376       .  S
C559        C560   1.405       .  A
C559        C564   1.408       .  A
C560        C561   1.399       .  A
C560        H565   1.083       .  S
C561        C562   1.408       .  A
C561        O566   1.372       .  S
C562        C563   1.405       .  A
C563        C564   1.399       .  A
C563        H567   1.083       .  S
C564        O568   1.372       .  S
O566        H570   0.992       .  S
O568        H569   0.992       .  S
C571        C572   1.403       .  A
C571        C576   1.411       .  A
C572        C573   1.399       .  A
C572        H577   1.083       .  S
C573        C574   1.411       .  A
C573        O578   1.371       .  S
C574        C575   1.403       .  A
C575        C576   1.400       .  A
C575        H579   1.083       .  S
C576        O580   1.372       .  S
O578        H582   0.992       .  S
O580        H581   0.992       .  S
C583        C584   1.406       .  A
C583        C588   1.409       .  A
C584        C585   1.400       .  A
C584        H589   1.083       .  S
C585        C586   1.410       .  A
C585        O590   1.371       .  S
C586        C587   1.406       .  A
C587        C588   1.399       .  A
C587        H591   1.083       .  S
C588        O592   1.371       .  S
O590        H594   0.992       .  S
O592        H593   0.992       .  S
C595        C596   1.404       .  A
C595        C600   1.410       .  A
C596        C597   1.401       .  A
C596        H601   1.083       .  S
C597        C598   1.410       .  A
C597        O602   1.372       .  S
C598        C599   1.405       .  A
C599        C600   1.402       .  A
C599        H603   1.083       .  S
C600        O604   1.372       .  S
O602        H606   0.992       .  S
O604        H605   0.992       .  S
C607        C608   1.405       .  A
C607        C612   1.412       .  A
C608        C609   1.401       .  A
C608        H613   1.083       .  S
C609        C610   1.412       .  A
C609        O614   1.371       .  S
C610        C611   1.404       .  A
C611        C612   1.400       .  A
C611        H615   1.083       .  S
C612        O616   1.371       .  S
O614        H618   0.992       .  S
O616        H617   0.992       .  S
C619        C620   1.405       .  A
C619        C624   1.411       .  A
C620        C621   1.400       .  A
C620        H625   1.083       .  S
C621        C622   1.411       .  A
C621        O626   1.371       .  S
C622        C623   1.404       .  A
C623        C624   1.399       .  A
C623        H627   1.083       .  S
C624        O628   1.371       .  S
O626        H630   0.992       .  S
O628        H629   0.992       .  S
C631        C636   1.411       .  A
C631       C1964   1.405       .  A
C632        C633   1.401       .  A
C632       C1963   1.405       .  A
C632        H637   1.083       .  S
C633       C1966   1.412       .  A
C633        O638   1.371       .  S
C634        C635   1.406       .  A
C634       C1965   1.412       .  A
C635        C636   1.401       .  A
C635        H639   1.083   1_556  S
C636        O640   1.371       .  S
O638        H642   0.992       .  S
O640        H641   0.992       .  S
C643        C648   1.409   1_554  A
C643       C1310   1.405   1_554  A
C644        C645   1.397       .  A
C644       C1309   1.405   1_556  A
C644        H649   1.083   1_565  S
C645       C1312   1.409       .  A
C645        O650   1.371   1_565  S
C646        C647   1.405       .  A
C646       C1311   1.409       .  A
C646        C787   1.478       .  S
C647        C648   1.397       .  A
C647        H651   1.083       .  S
C648        O652   1.371       .  S
O650        H654   0.992       .  S
O652        H653   0.992   1_556  S
C655        C656   1.403       .  A
C655        C660   1.413       .  A
C656        C657   1.401       .  A
C656        H661   1.083       .  S
C657        C658   1.413       .  A
C657        O662   1.371       .  S
C658        C659   1.403       .  A
C659        C660   1.400       .  A
C659        H663   1.083       .  S
C660        O664   1.371       .  S
O662        H666   0.992       .  S
O664        H665   0.992       .  S
N667        N668   1.323       .  A
N667        C671   1.350       .  A
N667       Cu675   2.092       .  S
N668        C669   1.342       .  A
N668       Cu674   2.064       .  S
C669        C670   1.379       .  A
C669        H672   1.082       .  S
C670        C671   1.388       .  A
C670        C961   1.473       .  S
C671        H673   1.082       .  S
Cu674       N677   2.064       .  S
Cu675       N685   2.093       .  S
Cu676       N678   2.070       .  S
Cu676       N684   2.071       .  S
N677        N678   1.320       .  A
N677        C681   1.343       .  A
N678        C679   1.346       .  A
C679        C680   1.385       .  A
C679        H682   1.082       .  S
C680        C681   1.382       .  A
C680       C1100   1.469       .  S
C681        H683   1.082       .  S
N684        N685   1.323       .  A
N684        C688   1.343       .  A
N685        C686   1.347       .  A
C686        C687   1.389       .  A
C686        H689   1.082       .  S
C687        C688   1.384       .  A
C687       C1324   1.486   1_554  S
C688        H690   1.081       .  S
N691        N692   1.323       .  A
N691        C695   1.350       .  A
N691       Cu699   2.092       .  S
N692        C693   1.342       .  A
N692       Cu698   2.064       .  S
C693        C694   1.379       .  A
C693        H696   1.082       .  S
C694        C695   1.388       .  A
C694       C1037   1.472       .  S
C695        H697   1.082       .  S
Cu698       N701   2.064       .  S
Cu699       N709   2.093       .  S
Cu700       N702   2.069       .  S
Cu700       N708   2.070       .  S
N701        N702   1.320       .  A
N701        C705   1.343       .  A
N702        C703   1.346       .  A
C703        C704   1.384       .  A
C703        H706   1.082       .  S
C704        C705   1.382       .  A
C704       C1223   1.468       .  S
C705        H707   1.082       .  S
N708        N709   1.323       .  A
N708        C712   1.343       .  A
N709        C710   1.348       .  A
C710        C711   1.389       .  A
C710        H713   1.082       .  S
C711        C712   1.384       .  A
C711       C1321   1.486       .  S
C712        H714   1.081       .  S
O715       Cu723   2.013       .  S
O715        C725   1.278       .  A
O716       Cu723   2.009       .  S
O716        C726   1.278       .  A
O717       Cu723   2.007       .  S
O717        C727   1.277       .  A
O718       Cu723   2.002       .  S
O718        C728   1.277       .  A
O719       Cu724   2.006       .  S
O719        C728   1.277       .  A
O720       Cu724   2.002       .  S
O720        C727   1.277       .  A
O721       Cu724   2.012       .  S
O721        C726   1.277       .  A
O722       Cu724   2.008       .  S
O722        C725   1.278       .  A
Cu723      Cu724   2.377       .  S
C725        C990   1.469       .  S
C726        C914   1.469       .  S
C727       C1176   1.465       .  S
C728       C1114   1.465       .  S
O729       Cu737   2.014       .  S
O729        C739   1.278       .  A
O730       Cu737   2.010       .  S
O730        C740   1.278       .  A
O731       Cu737   2.009       .  S
O731        C741   1.277       .  A
O732       Cu737   2.004       .  S
O732        C742   1.277       .  A
O733       Cu738   2.013       .  S
O733        C742   1.278       .  A
O734       Cu738   2.010       .  S
O734        C741   1.278       .  A
O735       Cu738   2.004       .  S
O735        C740   1.276       .  A
O736       Cu738   1.999       .  S
O736        C739   1.276       .  A
Cu737      Cu738   2.377       .  S
C739        C780   1.466       .  S
C740       C1014   1.467       .  S
C741        C828   1.469       .  S
N743        N744   1.322       .  A
N743        C747   1.346       .  A
N743       Cu751   2.070       .  S
N744        C745   1.343       .  A
N744       Cu750   2.066       .  S
C745        C746   1.381       .  A
C746        C747   1.383       .  A
C747        H749   1.082       .  S
Cu750       N753   2.066       .  S
Cu751       N761   2.070   1_545  S
Cu752       N754   2.066       .  S
Cu752       N760   2.065   1_545  S
N753        N754   1.321       .  A
N753        C757   1.342       .  A
N754        C755   1.346       .  A
C755        C756   1.383       .  A
C755        H758   1.082       .  S
C756        C757   1.381       .  A
N760        N761   1.322       .  A
N760        C764   1.342       .  A
N761        C762   1.344       .  A
C762        C763   1.385       .  A
C762        H765   1.081       .  S
C763        C764   1.383       .  A
C763       C1309   1.478       .  S
C764        H766   1.082       .  S
N767        N768   1.322       .  A
N767        C771   1.345       .  A
N767       Cu775   2.068       .  S
N768        C769   1.343       .  A
N768       Cu774   2.069       .  S
C769        C770   1.381       .  A
C769        H772   1.082       .  S
C770        C771   1.383       .  A
C770       C1036   1.466       .  S
C771        H773   1.082       .  S
Cu774       N777   2.069       .  S
Cu775       N785   2.068       .  S
Cu776       N778   2.065       .  S
Cu776       N784   2.065       .  S
N777        N778   1.321       .  A
N777        C781   1.343       .  A
N778        C779   1.345       .  A
C779        C780   1.382       .  A
C779        H782   1.082       .  S
C780        C781   1.382       .  A
C781        H783   1.082       .  S
N784        N785   1.322       .  A
C786        C787   1.385       .  A
C786        H789   1.081       .  S
C787        C788   1.383       .  A
C788        H790   1.082       .  S
N791        N792   1.321       .  A
N791        C795   1.346       .  A
N791       Cu799   2.078       .  S
N792       C2125   1.344       .  A
N792       Cu798   2.062       .  S
C793       N2124   1.344       .  A
C793        C794   1.381       .  A
C793        H796   1.082       .  S
C794       C2127   1.385       .  A
C794       C1097   1.468       .  S
C795       C2126   1.385       .  A
C795        H797   1.082       .  S
Cu798       N801   2.062       .  S
Cu799       N809   2.078       .  S
Cu800       N802   2.083       .  S
Cu800       N808   2.083       .  S
N801        N802   1.322       .  A
N801       C2137   1.343       .  A
N802        C803   1.348       .  A
C803       C2136   1.386       .  A
C803        H806   1.082       .  S
C804       C2135   1.386       .  A
C804        C805   1.380       .  A
C804        C849   1.469       .  S
C805       N2133   1.343       .  A
C805        H807   1.082       .  S
N808        N809   1.323       .  A
N808        C812   1.346   1_655  A
N809        C810   1.345       .  A
C810        C811   1.386   1_655  A
C810        H813   1.082       .  S
C811        C812   1.388       .  A
C811       C1300   1.488   1_554  S
C812        H814   1.081       .  S
N815        N816   1.321       .  A
N815        C819   1.346       .  A
N815       Cu823   2.078       .  S
N816        C817   1.343       .  A
N816       Cu822   2.061       .  S
C817        C818   1.380       .  A
C817        H820   1.082       .  S
C818        C819   1.385       .  A
C818       C1222   1.468       .  S
C819        H821   1.082       .  S
Cu822       N825   2.061       .  S
Cu823       N833   2.078       .  S
Cu824       N826   2.083       .  S
Cu824       N832   2.083       .  S
N825        N826   1.322       .  A
N825        C829   1.342       .  A
N826        C827   1.348       .  A
C827        C828   1.386       .  A
C827        H830   1.082       .  S
C828        C829   1.380       .  A
C829        H831   1.082       .  S
N832        N833   1.323       .  A
N832        C836   1.346       .  A
N833        C834   1.345       .  A
C834        C835   1.386       .  A
C834        H837   1.082       .  S
C835        C836   1.388       .  A
C835       C1297   1.487       .  S
C836        H838   1.081       .  S
O839       Cu847   2.010       .  S
O839        C849   1.277       .  A
O840       Cu847   2.004       .  S
O841       Cu847   2.013       .  S
O841        C851   1.278       .  A
O842       Cu847   2.010       .  S
O842        C852   1.278       .  A
O843       Cu848   2.005       .  S
O843        C852   1.276       .  A
O844       Cu848   1.999       .  S
O844        C851   1.276       .  A
O845       Cu848   2.012       .  S
O846       Cu848   2.009       .  S
O846        C849   1.278       .  A
Cu847      Cu848   2.377       .  S
C850       C1138   1.467   1_545  S
C852       C2270   1.467       .  S
N853        N854   1.322       .  A
N853       Cu861   2.082       .  S
N854        C855   1.343       .  A
N854       Cu860   2.065       .  S
C855        H858   1.082       .  S
C856        C857   1.386       .  A
C857        H859   1.082       .  S
Cu860       N863   2.065       .  S
Cu861       N871   2.082       .  S
Cu862       N864   2.073       .  S
Cu862       N870   2.073       .  S
N863        N864   1.321       .  A
N863        C867   1.343       .  A
N864       C2197   1.347       .  A
C865       N2196   1.347       .  A
C865        C866   1.385       .  A
C865        H868   1.082       .  S
C866       C2199   1.381       .  A
C866       C2307   1.469       .  S
C867       C2198   1.381       .  A
C867        H869   1.082       .  S
N870        N871   1.323       .  A
N870        C874   1.344       .  A
N871        C872   1.345       .  A
C872        C873   1.387       .  A
C872        H875   1.082       .  S
C873        C874   1.385       .  A
C873       C1285   1.484       .  S
C874        H876   1.081       .  S
N877        N878   1.322       .  A
N877       C2213   1.349       .  A
N877       Cu885   2.082       .  S
N878        C879   1.342       .  A
N878       Cu884   2.064       .  S
C879       C2212   1.380       .  A
C879        H882   1.082       .  S
C880       C2211   1.380       .  A
C880        C881   1.386       .  A
C880       C1099   1.470       .  S
C881       N2209   1.349       .  A
C881        H883   1.082       .  S
Cu884       N887   2.064       .  S
Cu885       N895   2.082       .  S
Cu886       N888   2.075       .  S
Cu886       N894   2.075       .  S
N887        N888   1.321       .  A
N887        C891   1.343       .  A
C889        C890   1.385       .  A
C889        H892   1.082       .  S
C890        C962   1.470       .  S
C891        H893   1.082       .  S
N894        N895   1.323       .  A
N894        C898   1.344       .  A
N895        C896   1.345       .  A
C896        C897   1.387       .  A
C896        H899   1.082       .  S
C897        C898   1.385       .  A
C897       C1288   1.484       .  S
C898        H900   1.081       .  S
N901        N902   1.322       .  A
N901        C905   1.348       .  A
N901       Cu909   2.082       .  S
N902        C903   1.343       .  A
N902       Cu908   2.066       .  S
C903        C904   1.381       .  A
C903        H906   1.082       .  S
C904        C905   1.386       .  A
C904        C974   1.470       .  S
C905        H907   1.082       .  S
Cu908       N911   2.065       .  S
Cu909       N919   2.083       .  S
Cu910       N912   2.076       .  S
Cu910       N918   2.077       .  S
N911        N912   1.321       .  A
N911        C915   1.343       .  A
N912        C913   1.347       .  A
C913        C914   1.385       .  A
C913        H916   1.082       .  S
C914        C915   1.381       .  A
C915        H917   1.082       .  S
N918        N919   1.323       .  A
N918        C922   1.344       .  A
N919        C920   1.346       .  A
C920        C921   1.387       .  A
C920        H923   1.082       .  S
C921        C922   1.386       .  A
C921       C1273   1.486       .  S
C922        H924   1.081       .  S
N925        N926   1.322       .  A
N925        C929   1.347       .  A
N925       Cu933   2.081       .  S
N926        C927   1.343       .  A
N926       Cu932   2.061       .  S
C927        C928   1.380       .  A
C927        H930   1.082       .  S
C928        C929   1.385       .  A
C928        C959   1.468       .  S
C929        H931   1.082       .  S
Cu932       N935   2.061       .  S
Cu933       N943   2.081       .  S
Cu934       N936   2.076       .  S
Cu934       N942   2.076       .  S
N935        N936   1.321       .  A
N935        C939   1.343       .  A
N936        C937   1.346       .  A
C937        C938   1.385       .  A
C937        H940   1.082   1_455  S
C938        C939   1.380       .  A
C938       C2184   1.467   1_455  S
C939        H941   1.082       .  S
N942        N943   1.323       .  A
N942        C946   1.345       .  A
N943        C944   1.345       .  A
C944        C945   1.387       .  A
C944        H947   1.082       .  S
C945        C946   1.387       .  A
C945       C1276   1.486       .  S
C946        H948   1.081       .  S
O949       Cu957   2.005       .  S
O949        C959   1.276       .  A
O950       Cu957   2.005       .  S
O950        C960   1.277       .  A
O951       Cu957   2.012       .  S
O951        C961   1.279       .  A
O952       Cu957   2.011       .  S
O952        C962   1.277       .  A
O954       Cu958   2.017       .  S
O954        C961   1.277       .  A
O955       Cu958   2.006       .  S
O955        C960   1.277       .  A
O956       Cu958   2.011       .  S
O956        C959   1.279       .  A
Cu957      Cu958   2.376       .  S
O963       Cu971   2.011       .  S
O963        C973   1.277   1_455  A
O964       Cu971   2.011       .  S
O964        C974   1.278       .  A
O965       Cu971   2.008       .  S
O965        C975   1.278       .  A
O966       Cu971   2.010       .  S
O966       C2308   1.277   1_455  A
O967       Cu972   2.009       .  S
O967        C976   1.278       .  A
O968      Cu2304   2.011       .  S
O968        C975   1.277       .  A
O969      Cu2304   2.011       .  S
O969        C974   1.277       .  A
O970       Cu972   2.012       .  S
O970       C2305   1.278       .  A
Cu971     Cu2304   2.376       .  S
Cu972      O2300   2.011       .  S
Cu972      O2301   2.011       .  S
Cu972     Cu2303   2.376       .  S
C973        C980   1.470       .  S
C973       O2302   1.278       .  A
C975       C2198   1.469       .  S
C976       C2384   1.468       .  S
C976       O2298   1.277       .  A
N977        N978   1.322       .  A
N977       C2313   1.348       .  A
N977       Cu985   2.083       .  S
N978        C979   1.343       .  A
N978       Cu984   2.066       .  S
C979       C2312   1.381       .  A
C979        H982   1.082       .  S
C980       C2311   1.381       .  A
C980        C981   1.386       .  A
C981       N2309   1.348       .  A
C981        H983   1.082       .  S
Cu984       N987   2.066       .  S
Cu985       N995   2.083       .  S
Cu986       N988   2.077       .  S
Cu986       N994   2.077       .  S
N987        N988   1.321       .  A
N987        C991   1.343       .  A
N988        C989   1.347       .  A
C989        C990   1.385       .  A
C989        H992   1.082       .  S
C990        C991   1.381       .  A
C991        H993   1.082       .  S
N994        N995   1.323       .  A
N994        C998   1.345       .  A
N995        C996   1.346       .  A
C996        C997   1.387       .  A
C996        H999   1.082       .  S
C997        C998   1.385       .  A
C997       C1261   1.484       .  S
C998       H1000   1.081       .  S
N1001      N1002   1.322       .  A
N1001      C1005   1.347       .  A
N1001     Cu1009   2.083       .  S
N1002      C1003   1.342       .  A
N1002     Cu1008   2.059       .  S
C1003      C1004   1.379       .  A
C1003      H1006   1.082       .  S
C1004      C1005   1.386       .  A
C1004      C1035   1.468       .  S
C1005      H1007   1.082       .  S
Cu1008     N1011   2.059       .  S
Cu1009     N1019   2.083       .  S
Cu1010     N1012   2.076       .  S
Cu1010     N1018   2.076       .  S
N1011      N1012   1.321       .  A
N1011      C1015   1.343       .  A
N1012      C2345   1.346       .  A
C1013      N2344   1.346       .  A
C1013      C1014   1.385       .  A
C1013      H1016   1.082       .  S
C1014      C2347   1.380       .  A
C1015      C2346   1.380       .  A
C1015      H1017   1.082       .  S
N1018      N1019   1.323       .  A
N1018      C1022   1.345       .  A
N1019      C1020   1.346       .  A
C1020      C1021   1.387       .  A
C1020      H1023   1.082       .  S
C1021      C1022   1.385       .  A
C1021      C1264   1.485       .  S
C1022      H1024   1.081       .  S
O1025     Cu1033   2.013       .  S
O1025      C1035   1.279       .  A
O1026     Cu1033   2.008       .  S
O1026      C1036   1.277       .  A
O1027     Cu1033   2.013       .  S
O1027      C1037   1.277       .  A
O1028     Cu1033   2.009       .  S
O1028      C1038   1.278       .  A
O1029     Cu1034   2.014       .  S
O1029      C1038   1.278       .  A
O1030     Cu1034   2.016       .  S
O1030      C1037   1.279       .  A
O1031     Cu1034   2.004       .  S
O1031      C1036   1.277       .  A
O1032     Cu1034   2.004       .  S
O1032      C1035   1.276       .  A
Cu1033    Cu1034   2.376       .  S
C1038      C1076   1.470       .  S
N1039      N1040   1.322       .  A
N1039     Cu1047   2.081       .  S
N1040      C1041   1.343       .  A
N1040     Cu1046   2.066       .  S
C1041      H1044   1.082       .  S
C1042      C1043   1.386       .  A
C1043      H1045   1.082       .  S
Cu1046     N1049   2.065       .  S
Cu1047     N1057   2.082       .  S
Cu1048     N2382   2.071       .  S
Cu1048     N1056   2.072       .  S
N1049      N2382   1.321       .  A
N1049      C2385   1.343       .  A
N1050      N2381   1.321       .  A
N1050      C1051   1.346       .  A
N1050     Cu2380   2.071       .  S
C1051      C1052   1.384       .  A
C1051      H1054   1.082   1_655  S
C1052      C1053   1.381       .  A
C1052      C2308   1.468       .  S
C1053      N2381   1.343       .  A
C1053      H1055   1.082       .  S
N1056      N1057   1.323       .  A
N1056      C1060   1.343       .  A
N1057      C1058   1.345       .  A
C1058      C1059   1.387       .  A
C1058      H1061   1.081       .  S
C1059      C1060   1.384       .  A
C1059      C1249   1.483       .  S
C1060      H2394   1.082       .  S
H1062      C2392   1.082       .  S
N1063      N1064   1.322   1_455  A
N1063      C1067   1.348       .  A
N1063     Cu2403   2.080   1_455  S
N1064      C1065   1.342   1_655  A
N1064     Cu2402   2.065       .  S
C1065      C1066   1.380       .  A
C1065      H1068   1.082       .  S
C1066      C1067   1.386       .  A
C1066      C1224   1.470       .  S
C1067      H1069   1.082       .  S
Cu1070     N2396   2.065       .  S
Cu1070     N1073   2.065       .  S
Cu1071     N2395   2.080       .  S
Cu1071     N1081   2.081       .  S
Cu1072     N1074   2.073       .  S
Cu1072     N1080   2.074       .  S
N1073      N1074   1.321       .  A
N1073      C1077   1.343       .  A
C1075      C1076   1.385       .  A
C1075      H1078   1.082       .  S
C1077      H1079   1.082       .  S
N1080      N1081   1.323       .  A
N1080      C1084   1.343       .  A
N1081      C1082   1.346       .  A
C1082      C1083   1.387       .  A
C1082      H2417   1.081       .  S
C1083      C1084   1.385       .  A
C1083      C1252   1.484       .  S
C1084      H1086   1.082       .  S
H1085      C2414   1.081       .  S
O1087     Cu1095   2.003       .  S
O1087      C1097   1.276       .  A
O1088     Cu1095   2.004       .  S
O1088      C1098   1.277       .  A
O1089     Cu1095   2.008       .  S
O1089      C1099   1.278       .  A
O1090     Cu1095   2.009       .  S
O1090      C1100   1.277       .  A
O1091     Cu1096   2.012       .  S
O1091      C1100   1.278       .  A
O1092     Cu1096   2.015       .  S
O1092      C1099   1.277       .  A
O1093     Cu1096   2.012       .  S
O1093      C1098   1.277       .  A
O1094     Cu1096   2.014       .  S
O1094      C1097   1.279       .  A
Cu1095    Cu1096   2.376       .  S
C1098      C1128   1.468       .  S
N1101      N1102   1.322       .  A
N1101      C1105   1.346       .  A
N1101     Cu1109   2.075       .  S
N1102      C1103   1.343       .  A
N1102     Cu1108   2.064       .  S
C1103      C1104   1.380       .  A
C1103      H1106   1.082       .  S
C1104      C1105   1.384       .  A
C1104      C1159   1.466       .  S
C1105      H1107   1.082       .  S
Cu1108     N1111   2.064       .  S
Cu1109     N1119   2.075       .  S
Cu1110     N1112   2.064       .  S
Cu1110     N1118   2.064       .  S
N1111      N1112   1.321       .  A
N1111      C1115   1.343       .  A
N1112      C1113   1.344       .  A
C1113      C1114   1.382       .  A
C1113      H1116   1.082       .  S
C1114      C1115   1.381       .  A
C1115      H1117   1.082       .  S
N1118      N1119   1.322       .  A
N1118      C1122   1.342       .  A
N1119      C1120   1.344       .  A
C1120      C1121   1.386       .  A
C1120      H1123   1.082       .  S
C1121      C1122   1.384       .  A
C1121      C1237   1.480       .  S
C1122      H1124   1.081       .  S
N1125      N1126   1.322       .  A
N1125      C1129   1.347       .  A
N1125     Cu1133   2.077       .  S
N1126      C1127   1.342       .  A
N1126     Cu1132   2.068       .  S
C1127      C1128   1.381       .  A
C1127      H1130   1.082       .  S
C1128      C1129   1.385       .  A
C1129      H1131   1.082       .  S
Cu1132     N1135   2.068       .  S
Cu1133     N1143   2.077       .  S
Cu1134     N1136   2.066       .  S
Cu1134     N1142   2.066       .  S
N1135      N1136   1.321       .  A
N1135      C1139   1.343       .  A
N1136      C1137   1.345       .  A
C1137      C1138   1.383       .  A
C1137      H1140   1.082       .  S
C1138      C1139   1.382       .  A
C1139      H1141   1.082       .  S
N1142      N1143   1.322       .  A
N1142      C1146   1.342       .  A
N1143      C1144   1.345       .  A
C1144      C1145   1.386       .  A
C1144      H1147   1.082       .  S
C1145      C1146   1.384       .  A
C1145      C1240   1.481       .  S
C1146      H1148   1.081       .  S
O1149     Cu1157   2.006       .  S
O1150     Cu1157   2.007       .  S
O1150      C1160   1.278       .  A
O1151     Cu1157   2.011       .  S
O1151      C1161   1.278       .  A
O1152      C1162   1.277       .  A
O1153     Cu1158   2.013       .  S
O1153      C1162   1.279       .  A
O1154     Cu1158   2.014       .  S
O1155     Cu1158   2.005   1_545  S
O1156     Cu1158   2.007       .  S
O1156      C1159   1.278       .  A
N1163      N1164   1.322       .  A
N1163     Cu1171   2.075       .  S
N1164      C1165   1.342       .  A
N1164     Cu1170   2.063       .  S
C1165      H1168   1.082       .  S
C1166      C1167   1.384       .  A
C1167      H1169   1.082       .  S
Cu1170     N1173   2.063       .  S
Cu1171     N1181   2.075       .  S
Cu1172     N1174   2.065       .  S
Cu1172     N1180   2.065       .  S
N1173      N1174   1.321       .  A
N1173      C1177   1.343       .  A
N1174      C1175   1.345       .  A
C1175      C1176   1.383       .  A
C1175      H1178   1.082       .  S
C1176      C1177   1.381       .  A
C1177      H1179   1.082       .  S
N1180      N1181   1.322       .  A
N1180      C1184   1.342       .  A
N1181      C1182   1.345       .  A
C1182      C1183   1.386       .  A
C1182      H1185   1.081       .  S
C1183      C1184   1.383       .  A
C1183      C1225   1.479       .  S
C1184      H1186   1.082       .  S
N1187      N1188   1.322       .  A
N1187      C1191   1.347       .  A
N1187     Cu1195   2.075       .  S
N1188      C1189   1.342       .  A
N1188     Cu1194   2.068       .  S
C1189      C1190   1.381       .  A
C1189      H1192   1.082       .  S
C1190      C1191   1.384       .  A
C1190      C1221   1.468       .  S
C1191      H1193   1.082       .  S
Cu1194     N1197   2.068       .  S
Cu1195     N1205   2.075       .  S
Cu1196     N1198   2.066       .  S
Cu1196     N1204   2.066       .  S
N1197      N1198   1.321       .  A
N1197      C1201   1.343       .  A
N1198      C1199   1.345       .  A
C1199      C1200   1.383       .  A
C1199      H1202   1.082       .  S
C1200      C1201   1.382       .  A
C1201      H1203   1.082       .  S
N1204      N1205   1.322       .  A
N1204      C1208   1.342       .  A
N1205      C1206   1.345       .  A
C1206      C1207   1.386       .  A
C1206      H1209   1.081       .  S
C1207      C1208   1.384       .  A
C1207      C1228   1.480       .  S
C1208      H1210   1.082       .  S
O1211     Cu1219   2.012       .  S
O1211      C1221   1.278       .  A
O1212     Cu1219   2.014       .  S
O1212      C1222   1.279       .  A
O1213     Cu1219   2.009       .  S
O1213      C1223   1.278       .  A
O1214     Cu1219   2.012       .  S
O1214      C1224   1.277       .  A
O1215     Cu1220   2.010       .  S
O1215      C1224   1.278       .  A
O1216     Cu1220   2.011       .  S
O1216      C1223   1.277       .  A
O1217     Cu1220   2.002       .  S
O1217      C1222   1.276       .  A
O1218     Cu1220   2.003       .  S
O1218      C1221   1.277       .  A
Cu1219    Cu1220   2.376       .  S
C1225      C1226   1.405       .  A
C1225      C1230   1.408       .  A
C1226      C1227   1.399       .  A
C1226      H1231   1.083       .  S
C1227      C1228   1.408       .  A
C1227      O1232   1.372       .  S
C1228      C1229   1.405       .  A
C1229      C1230   1.399       .  A
C1229      H1233   1.083       .  S
C1230      O1234   1.372       .  S
O1232      H1236   0.992       .  S
O1234      H1235   0.992       .  S
C1237      C1238   1.403       .  A
C1237      C1242   1.411       .  A
C1238      C1239   1.399       .  A
C1238      H1243   1.083       .  S
C1239      C1240   1.411       .  A
C1239      O1244   1.371       .  S
C1240      C1241   1.403       .  A
C1241      C1242   1.400       .  A
C1241      H1245   1.083       .  S
C1242      O1246   1.372       .  S
O1244      H1248   0.992       .  S
O1246      H1247   0.992       .  S
C1249      C1250   1.406       .  A
C1249      C1254   1.409       .  A
C1250      C1251   1.400       .  A
C1250      H1255   1.083       .  S
C1251      C1252   1.410       .  A
C1251      O1256   1.371       .  S
C1252      C1253   1.406       .  A
C1253      C1254   1.399       .  A
C1253      H1257   1.083       .  S
C1254      O1258   1.371       .  S
O1256      H1260   0.992       .  S
O1258      H1259   0.992       .  S
C1261      C1262   1.404       .  A
C1261      C1266   1.410       .  A
C1262      C1263   1.401       .  A
C1262      H1267   1.083       .  S
C1263      C1264   1.410       .  A
C1263      O1268   1.372       .  S
C1264      C1265   1.405       .  A
C1265      C1266   1.402       .  A
C1265      H1269   1.083       .  S
C1266      O1270   1.372       .  S
O1268      H1272   0.992       .  S
O1270      H1271   0.992       .  S
C1273      C1274   1.405       .  A
C1273      C1278   1.412       .  A
C1274      C1275   1.401       .  A
C1274      H1279   1.083       .  S
C1275      C1276   1.412       .  A
C1275      O1280   1.371       .  S
C1276      C1277   1.404       .  A
C1277      C1278   1.400       .  A
C1277      H1281   1.083       .  S
C1278      O1282   1.371       .  S
O1280      H1284   0.992       .  S
O1282      H1283   0.992       .  S
C1285      C1286   1.405       .  A
C1285      C1290   1.411       .  A
C1286      C1287   1.400       .  A
C1286      H1291   1.083       .  S
C1287      C1288   1.411       .  A
C1287      O1292   1.371       .  S
C1288      C1289   1.404       .  A
C1289      C1290   1.399       .  A
C1289      H1293   1.083       .  S
C1290      O1294   1.371       .  S
O1292      H1296   0.992       .  S
O1294      H1295   0.992       .  S
C1297      C2630   1.405       .  A
C1297      C1302   1.411       .  A
C1298      C2629   1.405       .  A
C1298      C1299   1.401       .  A
C1298      H1303   1.083       .  S
C1299      C2632   1.412       .  A
C1299      O1304   1.371       .  S
C1300      C2631   1.412       .  A
C1300      C1301   1.406       .  A
C1301      C1302   1.401       .  A
C1301      H1305   1.083   1_556  S
C1302      O1306   1.371       .  S
O1304      H1308   0.992       .  S
O1306      H1307   0.992       .  S
C1309      C1314   1.409   1_554  A
C1310      C1311   1.397       .  A
C1310      H1315   1.083       .  S
C1311      O1316   1.371       .  S
C1312      C1313   1.405       .  A
C1313      C1314   1.397       .  A
C1313      H1317   1.083       .  S
C1314      O1318   1.371       .  S
O1316      H1320   0.992       .  S
O1318      H1319   0.992   1_556  S
C1321      C1322   1.403       .  A
C1321      C1326   1.413       .  A
C1322      C1323   1.401       .  A
C1322      H1327   1.083       .  S
C1323      C1324   1.413       .  A
C1323      O1328   1.371       .  S
C1324      C1325   1.403       .  A
C1325      C1326   1.400       .  A
C1325      H1329   1.083       .  S
C1326      O1330   1.371       .  S
O1328      H1332   0.992       .  S
O1330      H1331   0.992       .  S
N1333      N1334   1.323       .  A
N1333      C1337   1.350       .  A
N1333     Cu1341   2.092       .  S
N1334      C1335   1.342       .  A
N1334     Cu1340   2.064       .  S
C1335      C1336   1.379       .  A
C1335      H1338   1.082       .  S
C1336      C1337   1.388       .  A
C1336      C1627   1.473       .  S
C1337      H1339   1.082       .  S
Cu1340     N1343   2.064       .  S
Cu1341     N1351   2.093       .  S
Cu1342     N1344   2.070       .  S
Cu1342     N1350   2.071       .  S
N1343      N1344   1.320       .  A
N1343      C1347   1.343       .  A
N1344      C1345   1.346       .  A
C1345      C1346   1.385       .  A
C1345      H1348   1.082       .  S
C1346      C1347   1.382       .  A
C1346      C1766   1.469       .  S
C1347      H1349   1.082       .  S
N1350      N1351   1.323       .  A
N1350      C1354   1.343       .  A
N1351      C1352   1.347       .  A
C1352      C1353   1.389       .  A
C1352      H1355   1.082       .  S
C1353      C1354   1.384       .  A
C1353      C1990   1.486   1_554  S
C1354      H1356   1.081       .  S
N1357      N1358   1.323       .  A
N1357      C1361   1.350       .  A
N1357     Cu1365   2.092       .  S
N1358      C1359   1.342       .  A
N1358     Cu1364   2.064       .  S
C1359      C1360   1.379       .  A
C1359      H1362   1.082       .  S
C1360      C1361   1.388       .  A
C1360      C1703   1.472       .  S
C1361      H1363   1.082       .  S
Cu1364     N1367   2.064       .  S
Cu1365     N1375   2.093       .  S
Cu1366     N1368   2.069       .  S
Cu1366     N1374   2.070       .  S
N1367      N1368   1.320       .  A
N1367      C1371   1.343       .  A
N1368      C1369   1.346       .  A
C1369      C1370   1.384       .  A
C1369      H1372   1.082       .  S
C1370      C1371   1.382       .  A
C1370      C1889   1.468       .  S
C1371      H1373   1.082       .  S
N1374      N1375   1.323       .  A
N1374      C1378   1.343       .  A
N1375      C1376   1.348       .  A
C1376      C1377   1.389       .  A
C1376      H1379   1.082       .  S
C1377      C1378   1.384       .  A
C1377      C1987   1.486       .  S
C1378      H1380   1.081       .  S
O1381     Cu1389   2.013       .  S
O1381      C1391   1.278       .  A
O1382     Cu1389   2.009       .  S
O1382      C1392   1.278       .  A
O1383     Cu1389   2.007       .  S
O1383      C1393   1.277       .  A
O1384     Cu1389   2.002       .  S
O1384      C1394   1.277       .  A
O1385     Cu1390   2.006       .  S
O1385      C1394   1.277       .  A
O1386     Cu1390   2.002       .  S
O1386      C1393   1.277       .  A
O1387     Cu1390   2.012       .  S
O1387      C1392   1.277       .  A
O1388     Cu1390   2.008       .  S
O1388      C1391   1.278       .  A
Cu1389    Cu1390   2.377       .  S
C1391      C1656   1.469       .  S
C1392      C1580   1.469       .  S
C1393      C1842   1.465       .  S
C1394      C1780   1.465       .  S
O1395     Cu1403   2.014       .  S
O1395      C1405   1.278       .  A
O1396     Cu1403   2.010       .  S
O1396      C1406   1.278       .  A
O1397     Cu1403   2.009       .  S
O1397      C1407   1.277       .  A
O1398     Cu1403   2.004       .  S
O1398      C1408   1.277       .  A
O1399     Cu1404   2.013       .  S
O1399      C1408   1.278       .  A
O1400     Cu1404   2.010       .  S
O1400      C1407   1.278       .  A
O1401     Cu1404   2.004       .  S
O1401      C1406   1.276       .  A
O1402     Cu1404   1.999       .  S
O1402      C1405   1.276       .  A
Cu1403    Cu1404   2.377       .  S
C1405      C1446   1.466       .  S
C1406      C1680   1.467       .  S
C1407      C1494   1.469       .  S
C1408      C2532   1.467       .  S
N1409      N1410   1.322       .  A
N1409      C1413   1.346       .  A
N1409     Cu1417   2.070       .  S
N1410      C1411   1.343       .  A
N1410     Cu1416   2.066       .  S
C1411      C1412   1.381       .  A
C1411      H2080   1.082       .  S
C1412      C1413   1.383       .  A
C1412      C2292   1.466       .  S
C1413      H1415   1.082       .  S
H1414      C2077   1.082       .  S
Cu1416     N1419   2.066       .  S
Cu1417     N1427   2.070       .  S
Cu1418     N1420   2.066       .  S
Cu1418     N1426   2.065       .  S
N1419      N1420   1.321       .  A
N1419      C1423   1.342       .  A
N1420      C1421   1.346       .  A
C1421      C1422   1.383       .  A
C1421      H1424   1.082       .  S
C1422      C1423   1.381       .  A
C1422      C2183   1.466       .  S
C1423      H2091   1.082       .  S
H1425      C2089   1.082       .  S
N1426      N1427   1.322       .  A
N1426      C1430   1.342       .  A
N1427      C1428   1.344       .  A
C1428      C1429   1.385       .  A
C1428      H1431   1.081       .  S
C1429      C1430   1.383       .  A
C1429      C1975   1.478       .  S
C1430      H1432   1.082       .  S
N1433      N1434   1.322       .  A
N1433      C1437   1.345       .  A
N1433     Cu1441   2.068       .  S
N1434      C1435   1.343       .  A
N1434     Cu1440   2.069       .  S
C1435      C1436   1.381       .  A
C1435      H1438   1.082       .  S
C1436      C1437   1.383       .  A
C1436      C1702   1.466       .  S
C1437      H1439   1.082       .  S
Cu1440     N1443   2.069       .  S
Cu1441     N1451   2.068       .  S
Cu1442     N1444   2.065       .  S
Cu1442     N1450   2.065       .  S
N1443      N1444   1.321       .  A
N1443      C1447   1.343       .  A
N1444      C1445   1.345       .  A
C1445      C1446   1.382       .  A
C1445      H1448   1.082       .  S
C1446      C1447   1.382       .  A
C1447      H1449   1.082       .  S
N1450      N1451   1.322       .  A
N1450      C2120   1.342       .  A
N1451      C2118   1.343       .  A
C1452      N2117   1.343       .  A
C1452      C1453   1.385       .  A
C1452      H1455   1.081       .  S
C1453      C1454   1.383       .  A
C1453      C2644   1.478       .  S
C1454      N2116   1.342       .  A
C1454      H1456   1.082       .  S
N1457      N1458   1.321       .  A
N1457      C1461   1.346       .  A
N1457     Cu1465   2.078       .  S
N1458     Cu1464   2.062       .  S
C1459      C1460   1.381       .  A
C1459      H1462   1.082       .  S
C1460      C1763   1.468       .  S
C1461      H1463   1.082       .  S
Cu1464     N1467   2.062       .  S
Cu1465     N1475   2.078       .  S
Cu1466     N1468   2.083       .  S
Cu1466     N1474   2.083       .  S
N1467      N1468   1.322       .  A
N1468      C1469   1.348       .  A
C1469      H1472   1.082       .  S
C1470      C1471   1.380       .  A
C1470      C1515   1.469       .  S
C1471      H1473   1.082       .  S
N1474      N1475   1.323       .  A
N1474      C1478   1.346       .  A
N1475      C1476   1.345       .  A
C1476      C1477   1.386       .  A
C1476      H1479   1.082       .  S
C1477      C1478   1.388       .  A
C1477      C1966   1.488   1_554  S
C1478      H1480   1.081       .  S
N1481      N1482   1.321       .  A
N1481      C1485   1.346       .  A
N1481     Cu1489   2.078       .  S
N1482      C1483   1.343       .  A
N1482     Cu1488   2.061       .  S
C1483      C1484   1.380       .  A
C1483      H1486   1.082       .  S
C1484      C1485   1.385       .  A
C1484      C1888   1.468       .  S
C1485      H1487   1.082       .  S
Cu1488     N1491   2.061       .  S
Cu1489     N1499   2.078       .  S
Cu1490     N1492   2.083       .  S
Cu1490     N1498   2.083       .  S
N1491      N1492   1.322       .  A
N1491      C1495   1.342       .  A
N1492      C1493   1.348       .  A
C1493      C1494   1.386       .  A
C1493      H1496   1.082       .  S
C1494      C1495   1.380       .  A
C1495      H1497   1.082       .  S
N1498      N1499   1.323       .  A
N1498      C1502   1.346       .  A
N1499      C1500   1.345       .  A
C1500      C1501   1.386       .  A
C1500      H1503   1.082       .  S
C1501      C1502   1.388       .  A
C1501      C1963   1.487       .  S
C1502      H1504   1.081       .  S
O1505     Cu1513   2.010       .  S
O1505      C1515   1.277       .  A
O1506     Cu1513   2.004       .  S
O1506      C2182   1.277       .  A
O1507     Cu1513   2.013       .  S
O1507      C1517   1.278       .  A
O1508     Cu1513   2.010       .  S
O1508      C1518   1.278       .  A
O1509     Cu1514   2.005       .  S
O1509      C1518   1.276       .  A
O1510     Cu1514   1.999       .  S
O1510      C1517   1.276       .  A
O1511     Cu1514   2.012       .  S
O1511      C2182   1.278       .  A
O1512     Cu1514   2.009       .  S
O1512      C1515   1.278       .  A
Cu1513    Cu1514   2.377       .  S
C1516      C1804   1.467       .  S
C1516      O2172   1.277       .  A
C1516      O2177   1.278       .  A
C1517      C2088   1.466       .  S
N1519      N1520   1.322       .  A
N1519      C2189   1.348       .  A
N1519     Cu1527   2.082       .  S
N1520      C1521   1.343       .  A
N1520     Cu1526   2.065       .  S
C1521      C2188   1.380       .  A
C1521      H1524   1.082       .  S
C1522      C2187   1.380       .  A
C1522      C1523   1.386       .  A
C1522      C2494   1.471       .  S
C1523      N2185   1.348       .  A
C1523      H1525   1.082       .  S
Cu1526     N1529   2.065       .  S
Cu1527     N1537   2.082       .  S
Cu1528     N1530   2.073       .  S
Cu1528     N1536   2.073       .  S
N1529      N1530   1.321       .  A
N1529      C1533   1.343       .  A
C1531      C1532   1.385       .  A
C1531      H1534   1.082       .  S
C1533      H1535   1.082       .  S
N1536      N1537   1.323       .  A
N1536      C1540   1.344       .  A
N1537      C1538   1.345       .  A
C1538      C1539   1.387       .  A
C1538      H1541   1.082       .  S
C1539      C1540   1.385       .  A
C1539      C1951   1.484       .  S
C1540      H1542   1.081       .  S
N1543      N1544   1.322       .  A
N1543     Cu1551   2.082       .  S
N1544      C1545   1.342       .  A
N1544     Cu1550   2.064       .  S
C1545      H1548   1.082       .  S
C1546      C1547   1.386       .  A
C1546      C1765   1.470   1_455  S
C1547      H1549   1.082   1_455  S
Cu1550     N1553   2.064       .  S
Cu1551     N1561   2.082       .  S
Cu1552     N1554   2.075       .  S
Cu1552     N1560   2.075       .  S
N1553      N1554   1.321       .  A
N1553      C1557   1.343       .  A
N1554      C2221   1.347       .  A
C1555      N2220   1.347       .  A
C1555      C1556   1.385       .  A
C1555      H1558   1.082   1_565  S
C1556      C2223   1.381       .  A
C1556      C1628   1.470   1_565  S
C1557      C2222   1.381       .  A
C1557      H1559   1.082       .  S
N1560      N1561   1.323       .  A
N1560      C1564   1.344       .  A
N1561      C1562   1.345       .  A
C1562      C1563   1.387       .  A
C1562      H1565   1.082       .  S
C1563      C1564   1.385       .  A
C1563      C1954   1.484       .  S
C1564      H1566   1.081       .  S
N1567      N1568   1.322       .  A
N1567      C1571   1.348       .  A
N1567     Cu1575   2.082       .  S
N1568      C1569   1.343       .  A
N1568     Cu1574   2.066       .  S
C1569      C1570   1.381       .  A
C1569      H1572   1.082       .  S
C1570      C1571   1.386       .  A
C1570      C1640   1.470       .  S
C1571      H1573   1.082       .  S
Cu1574     N1577   2.065       .  S
Cu1575     N1585   2.083       .  S
Cu1576     N1578   2.076       .  S
Cu1576     N1584   2.077       .  S
N1577      N1578   1.321       .  A
N1577      C1581   1.343       .  A
N1578      C1579   1.347       .  A
C1579      C1580   1.385       .  A
C1579      H1582   1.082       .  S
C1580      C1581   1.381       .  A
C1581      H1583   1.082       .  S
N1584      N1585   1.323       .  A
N1584      C1588   1.344       .  A
N1585      C1586   1.346       .  A
C1586      C1587   1.387       .  A
C1586      H1589   1.082       .  S
C1587      C1588   1.386       .  A
C1587      C1939   1.486       .  S
C1588      H1590   1.081       .  S
N1591      N1592   1.322       .  A
N1591      C1595   1.347       .  A
N1591     Cu1599   2.081       .  S
N1592      C1593   1.343       .  A
N1592     Cu1598   2.061       .  S
C1593      C1594   1.380       .  A
C1593      H1596   1.082       .  S
C1594      C1595   1.385       .  A
C1594      C1625   1.468       .  S
C1595      H1597   1.082       .  S
Cu1598     N1601   2.061       .  S
Cu1599     N1609   2.081       .  S
Cu1600     N1602   2.076       .  S
Cu1600     N1608   2.076       .  S
N1601      N1602   1.321       .  A
N1601      C1605   1.343       .  A
N1602      C1603   1.346       .  A
C1603      C1604   1.385       .  A
C1603      H1606   1.082       .  S
C1604      C1605   1.380       .  A
C1605      H1607   1.082       .  S
N1608      N1609   1.323       .  A
N1608      C1612   1.345       .  A
N1609      C1610   1.345       .  A
C1610      C1611   1.387       .  A
C1610      H1613   1.082       .  S
C1611      C1612   1.387       .  A
C1611      C1942   1.486       .  S
C1612      H1614   1.081       .  S
O1615     Cu1623   2.005       .  S
O1615      C1625   1.276       .  A
O1616     Cu1623   2.005       .  S
O1616      C1626   1.277       .  A
O1617     Cu1623   2.012       .  S
O1617      C1627   1.279       .  A
O1618     Cu1623   2.011       .  S
O1618      C1628   1.277       .  A
O1619     Cu2290   2.013       .  S
O1619      C2294   1.278       .  A
O1620     Cu1624   2.017       .  S
O1620      C1627   1.277       .  A
O1621     Cu1624   2.006       .  S
O1621      C1626   1.277       .  A
O1622     Cu1624   2.011       .  S
O1622      C1625   1.279       .  A
Cu1623    Cu1624   2.376       .  S
Cu1624     O2285   2.013       .  S
C1626      C2078   1.466       .  S
C1628      O2285   1.278       .  A
O1629     Cu1637   2.011       .  S
O1629      C1639   1.277       .  A
O1630     Cu1637   2.011       .  S
O1630      C1640   1.278       .  A
O1631     Cu1637   2.008       .  S
O1631      C1641   1.278       .  A
O1632     Cu1637   2.010       .  S
O1633     Cu1638   2.009   1_655  S
O1633      C1642   1.278       .  A
O1634      C1641   1.277       .  A
O1635      C1640   1.277       .  A
O1636     Cu1638   2.012   1_655  S
C1639      C1646   1.470       .  S
N1643      N1644   1.322       .  A
N1643     Cu1651   2.083       .  S
N1644      C1645   1.343       .  A
N1644     Cu1650   2.066       .  S
C1645      H1648   1.082       .  S
C1646      C1647   1.386       .  A
C1647      H1649   1.082       .  S
Cu1650     N1653   2.066       .  S
Cu1651     N1661   2.083       .  S
Cu1652     N1654   2.077       .  S
Cu1652     N1660   2.077       .  S
N1653      N1654   1.321       .  A
N1653      C1657   1.343       .  A
N1654      C1655   1.347       .  A
C1655      C1656   1.385       .  A
C1655      H1658   1.082       .  S
C1656      C1657   1.381       .  A
C1657      H1659   1.082       .  S
N1660      N1661   1.323       .  A
N1660      C1664   1.345       .  A
N1661      C1662   1.346       .  A
C1662      C1663   1.387       .  A
C1662      H1665   1.082       .  S
C1663      C1664   1.385       .  A
C1663      C1927   1.484       .  S
C1664      H1666   1.081       .  S
N1667      N1668   1.322       .  A
N1667      C1671   1.347       .  A
N1667     Cu1675   2.083       .  S
N1668      C1669   1.342       .  A
N1668     Cu1674   2.059       .  S
C1669      C1670   1.379       .  A
C1669      H1672   1.082       .  S
C1670      C1671   1.386       .  A
C1670      C1701   1.468       .  S
C1671      H1673   1.082       .  S
Cu1674     N1677   2.059   1_655  S
Cu1675     N1685   2.083       .  S
Cu1676     N1678   2.076   1_655  S
Cu1676     N1684   2.076       .  S
N1677      N1678   1.321       .  A
N1677      C1681   1.343       .  A
C1679      C1680   1.385       .  A
C1679      H1682   1.082       .  S
C1681      H1683   1.082       .  S
N1684      N1685   1.323       .  A
N1684      C1688   1.345       .  A
N1685      C1686   1.346       .  A
C1686      C1687   1.387       .  A
C1686      H1689   1.082       .  S
C1687      C1688   1.385       .  A
C1687      C1930   1.485       .  S
C1688      H1690   1.081       .  S
O1691     Cu1699   2.013       .  S
O1691      C1701   1.279       .  A
O1692     Cu1699   2.008       .  S
O1692      C1702   1.277       .  A
O1693     Cu1699   2.013       .  S
O1693      C1703   1.277       .  A
O1694     Cu1699   2.009       .  S
O1694      C1704   1.278       .  A
O1695     Cu1700   2.014       .  S
O1695      C1704   1.278       .  A
O1696     Cu1700   2.016       .  S
O1696      C1703   1.279       .  A
O1697     Cu1700   2.004       .  S
O1697      C1702   1.277       .  A
O1698     Cu1700   2.004       .  S
O1698      C1701   1.276       .  A
Cu1699    Cu1700   2.376       .  S
C1704      C1742   1.470       .  S
N1705      N1706   1.322       .  A
N1705      C2375   1.348       .  A
N1705     Cu1713   2.081       .  S
N1706      C1707   1.343       .  A
N1706     Cu1712   2.066       .  S
C1707      C2374   1.381       .  A
C1707      H1710   1.082       .  S
C1708      C2373   1.381       .  A
C1708      C1709   1.386       .  A
C1708      C2493   1.471       .  S
C1709      N2371   1.348       .  A
C1709      H1711   1.082       .  S
Cu1712     N1715   2.065       .  S
Cu1713     N1723   2.082       .  S
Cu1714     N1722   2.072       .  S
N1716      C1717   1.346       .  A
C1717      C1718   1.384       .  A
C1717      H1720   1.082       .  S
C1718      C1719   1.381       .  A
C1719      H1721   1.082       .  S
N1722      N1723   1.323       .  A
N1722      C1726   1.343       .  A
N1723      C1724   1.345       .  A
C1724      C1725   1.387       .  A
C1724      H1727   1.081       .  S
C1725      C1726   1.384       .  A
C1725      C1915   1.483       .  S
N1729      N1730   1.322       .  A
N1729      C1733   1.348       .  A
N1730      C1731   1.342       .  A
C1731      C1732   1.380       .  A
C1731      H1734   1.082       .  S
C1732      C1733   1.386       .  A
C1732      C1890   1.470       .  S
C1733      H1735   1.082       .  S
Cu1736     N1739   2.065       .  S
Cu1737     N1747   2.081       .  S
Cu1738     N1740   2.073       .  S
Cu1738     N1746   2.074       .  S
N1739      N1740   1.321       .  A
N1739      C1743   1.343       .  A
N1740      C2407   1.347   1_545  A
C1741      N2406   1.347       .  A
C1741      C1742   1.385       .  A
C1741      H1744   1.082       .  S
C1742      C2409   1.381       .  A
C1743      C2408   1.381   1_545  A
C1743      H1745   1.082       .  S
N1746      N1747   1.323       .  A
N1746      C1750   1.343       .  A
N1747      C1748   1.346       .  A
C1748      C1749   1.387       .  A
C1749      C1750   1.385       .  A
C1749      C1918   1.484       .  S
C1750      H1752   1.082       .  S
O1753     Cu1761   2.003       .  S
O1753      C1763   1.276       .  A
O1754     Cu1761   2.004       .  S
O1754      C1764   1.277       .  A
O1755     Cu1761   2.008       .  S
O1755      C1765   1.278       .  A
O1756     Cu1761   2.009       .  S
O1756      C1766   1.277       .  A
O1757     Cu1762   2.012       .  S
O1757      C1766   1.278       .  A
O1758     Cu1762   2.015       .  S
O1758      C1765   1.277       .  A
O1759     Cu1762   2.012       .  S
O1759      C1764   1.277       .  A
O1760     Cu1762   2.014       .  S
O1760      C1763   1.279       .  A
Cu1761    Cu1762   2.376       .  S
C1764      C1794   1.468       .  S
N1767      N1768   1.322       .  A
N1767      C1771   1.346       .  A
N1767     Cu1775   2.075       .  S
N1768      C1769   1.343       .  A
N1768     Cu1774   2.064       .  S
C1769      C1770   1.380       .  A
C1769      H1772   1.082       .  S
C1770      C1771   1.384       .  A
C1770      C1825   1.466       .  S
C1771      H1773   1.082       .  S
Cu1774     N1777   2.064       .  S
Cu1775     N1785   2.075       .  S
Cu1776     N1778   2.064       .  S
Cu1776     N1784   2.064       .  S
N1777      N1778   1.321       .  A
N1777      C1781   1.343       .  A
N1778      C1779   1.344       .  A
C1779      C1780   1.382       .  A
C1779      H1782   1.082       .  S
C1780      C1781   1.381       .  A
C1781      H1783   1.082       .  S
N1784      N1785   1.322       .  A
N1784      C1788   1.342       .  A
N1785      C1786   1.344       .  A
C1786      C1787   1.386       .  A
C1786      H1789   1.082       .  S
C1787      C1788   1.384       .  A
C1787      C1903   1.480       .  S
C1788      H1790   1.081       .  S
N1791      N1792   1.322       .  A
N1791      C1795   1.347       .  A
N1791     Cu1799   2.077       .  S
N1792      C1793   1.342       .  A
N1792     Cu1798   2.068       .  S
C1793      C1794   1.381       .  A
C1793      H1796   1.082       .  S
C1794      C1795   1.385       .  A
C1795      H1797   1.082       .  S
Cu1798     N1801   2.068       .  S
Cu1799     N1809   2.077       .  S
Cu1800     N1802   2.066       .  S
Cu1800     N1808   2.066       .  S
N1801      N1802   1.321       .  A
N1801      C1805   1.343       .  A
N1802      C1803   1.345       .  A
C1803      C1804   1.383       .  A
C1803      H1806   1.082       .  S
C1804      C1805   1.382       .  A
C1805      H1807   1.082       .  S
N1808      N1809   1.322       .  A
N1808      C1812   1.342       .  A
N1809      C1810   1.345       .  A
C1810      C1811   1.386       .  A
C1810      H1813   1.082       .  S
C1811      C1812   1.384       .  A
C1811      C1906   1.481       .  S
C1812      H1814   1.081       .  S
O1815     Cu1823   2.006   1_565  S
O1815      C2491   1.277       .  A
O1816     Cu1823   2.007       .  S
O1816      C1826   1.278       .  A
O1817     Cu1823   2.011       .  S
O1817      C1827   1.278       .  A
O1818     Cu2489   2.011       .  S
O1818      C1828   1.277       .  A
O1819     Cu1824   2.013       .  S
O1819      C1828   1.279       .  A
O1820     Cu1824   2.014       .  S
O1820      C2493   1.277       .  A
O1821     Cu1824   2.005       .  S
O1821      C2492   1.276       .  A
O1822     Cu1824   2.007       .  S
O1822      C1825   1.278       .  A
Cu1823     O2484   2.011   1_545  S
Cu1823    Cu2490   2.376   1_545  S
Cu1824    Cu2489   2.376       .  S
C1825      O2481   1.277       .  A
C1826      C2498   1.466       .  S
C1826      O2487   1.276       .  A
C1827      C2374   1.471       .  S
C1827      O2486   1.277   1_545  A
C1828      C2188   1.471       .  S
N1829      N1830   1.322       .  A
N1829      C2499   1.346       .  A
N1829     Cu1837   2.075       .  S
N1830      C1831   1.342       .  A
N1830     Cu1836   2.063       .  S
C1831      C2498   1.380       .  A
C1831      H1834   1.082       .  S
C1832      C2497   1.380       .  A
C1832      C1833   1.384       .  A
C1832      C2492   1.466       .  S
C1833      N2495   1.346       .  A
C1833      H1835   1.082       .  S
Cu1836     N1839   2.063       .  S
Cu1837     N1847   2.075       .  S
Cu1838     N1840   2.065       .  S
Cu1838     N1846   2.065       .  S
N1839      N1840   1.321       .  A
N1839      C1843   1.343       .  A
N1840      C1841   1.345       .  A
C1841      C1842   1.383       .  A
C1841      H1844   1.082       .  S
C1842      C1843   1.381       .  A
C1843      H1845   1.082       .  S
N1846      N1847   1.322       .  A
N1846      C1850   1.342       .  A
N1847      C1848   1.345       .  A
C1848      C1849   1.386       .  A
C1848      H1851   1.081       .  S
C1849      C1850   1.383       .  A
C1849      C1891   1.479       .  S
C1850      H1852   1.082       .  S
N1853      N1854   1.322       .  A
N1853      C1857   1.347       .  A
N1853     Cu1861   2.075       .  S
N1854      C1855   1.342       .  A
N1854     Cu1860   2.068       .  S
C1855      C1856   1.381       .  A
C1855      H1858   1.082       .  S
C1856      C1857   1.384       .  A
C1856      C1887   1.468       .  S
C1857      H1859   1.082       .  S
Cu1860     N1863   2.068       .  S
Cu1861     N1871   2.075       .  S
Cu1862     N1864   2.066       .  S
Cu1862     N1870   2.066       .  S
N1863      N1864   1.321       .  A
N1863      C1867   1.343       .  A
N1864      C1865   1.345   1_545  A
C1865      C1866   1.383       .  A
C1865      H1868   1.082       .  S
C1866      C1867   1.382   1_565  A
C1866      C2074   1.467       .  S
C1867      H1869   1.082       .  S
N1870      N1871   1.322       .  A
N1870      C1874   1.342       .  A
N1871      C1872   1.345       .  A
C1872      C1873   1.386       .  A
C1872      H1875   1.081       .  S
C1873      C1874   1.384       .  A
C1873      C1894   1.480       .  S
C1874      H1876   1.082       .  S
O1877     Cu1885   2.012       .  S
O1877      C1887   1.278       .  A
O1878     Cu1885   2.014       .  S
O1878      C1888   1.279       .  A
O1879     Cu1885   2.009       .  S
O1879      C1889   1.278       .  A
O1880     Cu1885   2.012       .  S
O1880      C1890   1.277       .  A
O1881     Cu1886   2.010       .  S
O1881      C1890   1.278       .  A
O1882     Cu1886   2.011       .  S
O1882      C1889   1.277       .  A
O1883     Cu1886   2.002       .  S
O1883      C1888   1.276       .  A
O1884     Cu1886   2.003       .  S
O1884      C1887   1.277       .  A
Cu1885    Cu1886   2.376       .  S
C1891      C1892   1.405       .  A
C1891      C1896   1.408       .  A
C1892      C1893   1.399       .  A
C1892      H1897   1.083       .  S
C1893      C1894   1.408       .  A
C1893      O1898   1.372       .  S
C1894      C1895   1.405       .  A
C1895      C1896   1.399       .  A
C1895      H1899   1.083       .  S
C1896      O1900   1.372       .  S
O1898      H1902   0.992       .  S
O1900      H1901   0.992       .  S
C1903      C1904   1.403       .  A
C1903      C1908   1.411       .  A
C1904      C1905   1.399       .  A
C1904      H1909   1.083       .  S
C1905      C1906   1.411       .  A
C1905      O1910   1.371       .  S
C1906      C1907   1.403       .  A
C1907      C1908   1.400       .  A
C1907      H1911   1.083       .  S
C1908      O1912   1.372       .  S
O1910      H1914   0.992       .  S
O1912      H1913   0.992       .  S
C1915      C1916   1.406       .  A
C1915      C1920   1.409       .  A
C1916      C1917   1.400       .  A
C1916      H1921   1.083       .  S
C1917      C1918   1.410       .  A
C1917      O1922   1.371       .  S
C1918      C1919   1.406       .  A
C1919      C1920   1.399       .  A
C1919      H1923   1.083       .  S
C1920      O1924   1.371       .  S
O1922      H1926   0.992       .  S
O1924      H1925   0.992       .  S
C1927      C1928   1.404       .  A
C1927      C1932   1.410       .  A
C1928      C1929   1.401       .  A
C1928      H1933   1.083       .  S
C1929      C1930   1.410       .  A
C1929      O1934   1.372       .  S
C1930      C1931   1.405       .  A
C1931      C1932   1.402       .  A
C1931      H1935   1.083       .  S
C1932      O1936   1.372       .  S
O1934      H1938   0.992       .  S
O1936      H1937   0.992       .  S
C1939      C1940   1.405       .  A
C1939      C1944   1.412       .  A
C1940      C1941   1.401       .  A
C1940      H1945   1.083       .  S
C1941      C1942   1.412       .  A
C1941      O1946   1.371       .  S
C1942      C1943   1.404       .  A
C1943      C1944   1.400       .  A
C1943      H1947   1.083       .  S
C1944      O1948   1.371       .  S
O1946      H1950   0.992       .  S
O1948      H1949   0.992       .  S
C1951      C1952   1.405       .  A
C1951      C1956   1.411       .  A
C1952      C1953   1.400       .  A
C1952      H1957   1.083       .  S
C1953      C1954   1.411       .  A
C1953      O1958   1.371       .  S
C1954      C1955   1.404       .  A
C1955      C1956   1.399       .  A
C1955      H1959   1.083       .  S
C1956      O1960   1.371       .  S
O1958      H1962   0.992       .  S
O1960      H1961   0.992       .  S
C1963      C1968   1.411       .  A
C1964      C1965   1.401       .  A
C1964      H1969   1.083       .  S
C1965      O1970   1.371   1_455  S
C1966      C1967   1.406       .  A
C1967      C1968   1.401       .  A
C1967      H1971   1.083   1_556  S
C1968      O1972   1.371       .  S
O1970      H1974   0.992       .  S
O1972      H1973   0.992       .  S
C1975      C2642   1.405   1_554  A
C1975      C1980   1.409   1_554  A
C1976      C2641   1.405   1_556  A
C1976      C1977   1.397       .  A
C1976      H1981   1.083   1_565  S
C1977      C2644   1.409       .  A
C1977      O1982   1.371   1_565  S
C1978      C2643   1.409       .  A
C1978      C1979   1.405       .  A
C1978      C2119   1.478       .  S
C1979      C1980   1.397       .  A
C1979      H1983   1.083       .  S
C1980      O1984   1.371       .  S
O1982      H1986   0.992       .  S
O1984      H1985   0.992   1_556  S
C1987      C1988   1.403       .  A
C1987      C1992   1.413       .  A
C1988      C1989   1.401       .  A
C1988      H1993   1.083       .  S
C1989      C1990   1.413       .  A
C1989      O1994   1.371       .  S
C1990      C1991   1.403       .  A
C1991      C1992   1.400       .  A
C1991      H1995   1.083       .  S
C1992      O1996   1.371       .  S
O1994      H1998   0.992       .  S
O1996      H1997   0.992       .  S
N1999      N2000   1.323       .  A
N1999      C2003   1.350       .  A
N1999     Cu2007   2.092       .  S
N2000      C2001   1.342       .  A
N2000     Cu2006   2.064       .  S
C2001      C2002   1.379       .  A
C2001      H2004   1.082       .  S
C2002      C2003   1.388       .  A
C2002      C2293   1.473       .  S
C2003      H2005   1.082       .  S
Cu2006     N2009   2.064       .  S
Cu2007     N2017   2.093       .  S
Cu2008     N2010   2.070       .  S
Cu2008     N2016   2.071       .  S
N2009      N2010   1.320       .  A
N2009      C2013   1.343       .  A
N2010      C2011   1.346       .  A
C2011      C2012   1.385       .  A
C2011      H2014   1.082       .  S
C2012      C2013   1.382       .  A
C2012      C2432   1.469       .  S
C2013      H2015   1.082       .  S
N2016      N2017   1.323       .  A
N2016      C2020   1.343       .  A
N2017      C2018   1.347       .  A
C2018      C2019   1.389       .  A
C2018      H2021   1.082       .  S
C2019      C2020   1.384       .  A
C2019      C2656   1.486   1_554  S
C2020      H2022   1.081       .  S
N2023      N2024   1.323       .  A
N2023      C2027   1.350       .  A
N2023     Cu2031   2.092       .  S
N2024      C2025   1.342       .  A
N2024     Cu2030   2.064       .  S
C2025      C2026   1.379       .  A
C2025      H2028   1.082       .  S
C2026      C2027   1.388       .  A
C2026      C2369   1.472       .  S
C2027      H2029   1.082       .  S
Cu2030     N2033   2.064       .  S
Cu2031     N2041   2.093       .  S
Cu2032     N2034   2.069       .  S
Cu2032     N2040   2.070       .  S
N2033      N2034   1.320       .  A
N2033      C2037   1.343       .  A
N2034      C2035   1.346       .  A
C2035      C2036   1.384       .  A
C2035      H2038   1.082       .  S
C2036      C2037   1.382       .  A
C2036      C2555   1.468       .  S
C2037      H2039   1.082       .  S
N2040      N2041   1.323       .  A
N2040      C2044   1.343       .  A
N2041      C2042   1.348       .  A
C2042      C2043   1.389       .  A
C2042      H2045   1.082       .  S
C2043      C2044   1.384       .  A
C2043      C2653   1.486       .  S
C2044      H2046   1.081       .  S
O2047     Cu2055   2.013       .  S
O2047      C2057   1.278       .  A
O2048     Cu2055   2.009       .  S
O2048      C2058   1.278       .  A
O2049     Cu2055   2.007       .  S
O2049      C2059   1.277       .  A
O2050     Cu2055   2.002       .  S
O2050      C2060   1.277       .  A
O2051     Cu2056   2.006       .  S
O2051      C2060   1.277       .  A
O2052     Cu2056   2.002       .  S
O2052      C2059   1.277       .  A
O2053     Cu2056   2.012       .  S
O2053      C2058   1.277       .  A
O2054     Cu2056   2.008       .  S
O2054      C2057   1.278       .  A
Cu2055    Cu2056   2.377       .  S
C2057      C2322   1.469       .  S
C2058      C2246   1.469       .  S
C2059      C2508   1.465       .  S
C2060      C2446   1.465       .  S
O2061     Cu2069   2.014       .  S
O2061      C2071   1.278       .  A
O2062     Cu2069   2.010       .  S
O2062      C2072   1.278       .  A
O2063     Cu2069   2.009       .  S
O2063      C2073   1.277       .  A
O2064     Cu2069   2.004       .  S
O2064      C2074   1.277       .  A
O2065     Cu2070   2.013       .  S
O2065      C2074   1.278       .  A
O2066     Cu2070   2.010       .  S
O2066      C2073   1.278       .  A
O2067     Cu2070   2.004       .  S
O2067      C2072   1.276       .  A
O2068     Cu2070   1.999       .  S
O2068      C2071   1.276       .  A
Cu2069    Cu2070   2.377       .  S
C2071      C2112   1.466       .  S
C2072      C2346   1.467       .  S
C2073      C2160   1.469       .  S
N2075      N2076   1.322       .  A
N2075      C2079   1.346       .  A
N2075     Cu2083   2.070       .  S
N2076      C2077   1.343       .  A
N2076     Cu2082   2.066       .  S
C2077      C2078   1.381       .  A
C2078      C2079   1.383       .  A
C2079      H2081   1.082       .  S
Cu2082     N2085   2.066       .  S
Cu2083     N2093   2.070   1_545  S
Cu2084     N2086   2.066       .  S
Cu2084     N2092   2.065   1_545  S
N2085      N2086   1.321       .  A
N2085      C2089   1.342       .  A
N2086      C2087   1.346       .  A
C2087      C2088   1.383       .  A
C2087      H2090   1.082       .  S
C2088      C2089   1.381       .  A
N2092      N2093   1.322       .  A
N2092      C2096   1.342       .  A
N2093      C2094   1.344       .  A
C2094      C2095   1.385       .  A
C2094      H2097   1.081       .  S
C2095      C2096   1.383       .  A
C2095      C2641   1.478       .  S
C2096      H2098   1.082       .  S
N2099      N2100   1.322       .  A
N2099      C2103   1.345       .  A
N2099     Cu2107   2.068       .  S
N2100      C2101   1.343       .  A
N2100     Cu2106   2.069       .  S
C2101      C2102   1.381       .  A
C2101      H2104   1.082       .  S
C2102      C2103   1.383       .  A
C2102      C2368   1.466       .  S
C2103      H2105   1.082       .  S
Cu2106     N2109   2.069       .  S
Cu2107     N2117   2.068       .  S
Cu2108     N2110   2.065       .  S
Cu2108     N2116   2.065       .  S
N2109      N2110   1.321       .  A
N2109      C2113   1.343       .  A
N2110      C2111   1.345       .  A
C2111      C2112   1.382       .  A
C2111      H2114   1.082       .  S
C2112      C2113   1.382       .  A
C2113      H2115   1.082       .  S
N2116      N2117   1.322       .  A
C2118      C2119   1.385       .  A
C2118      H2121   1.081       .  S
C2119      C2120   1.383       .  A
C2120      H2122   1.082       .  S
N2123      N2124   1.321       .  A
N2123      C2127   1.346       .  A
N2123     Cu2131   2.078       .  S
N2124     Cu2130   2.062       .  S
C2125      C2126   1.381       .  A
C2125      H2128   1.082       .  S
C2126      C2429   1.468       .  S
C2127      H2129   1.082       .  S
Cu2130     N2133   2.062       .  S
Cu2131     N2141   2.078       .  S
Cu2132     N2134   2.083       .  S
Cu2132     N2140   2.083       .  S
N2133      N2134   1.322       .  A
N2134      C2135   1.348       .  A
C2135      H2138   1.082       .  S
C2136      C2137   1.380       .  A
C2136      C2181   1.469       .  S
C2137      H2139   1.082       .  S
N2140      N2141   1.323       .  A
N2140      C2144   1.346       .  A
N2141      C2142   1.345       .  A
C2142      C2143   1.386       .  A
C2142      H2145   1.082       .  S
C2143      C2144   1.388       .  A
C2143      C2632   1.488   1_554  S
C2144      H2146   1.081       .  S
N2147      N2148   1.321       .  A
N2147      C2151   1.346       .  A
N2147     Cu2155   2.078       .  S
N2148      C2149   1.343       .  A
N2148     Cu2154   2.061       .  S
C2149      C2150   1.380       .  A
C2149      H2152   1.082       .  S
C2150      C2151   1.385       .  A
C2150      C2554   1.468       .  S
C2151      H2153   1.082       .  S
Cu2154     N2157   2.061       .  S
Cu2155     N2165   2.078       .  S
Cu2156     N2158   2.083       .  S
Cu2156     N2164   2.083       .  S
N2157      N2158   1.322       .  A
N2157      C2161   1.342       .  A
N2158      C2159   1.348       .  A
C2159      C2160   1.386       .  A
C2159      H2162   1.082       .  S
C2160      C2161   1.380       .  A
C2161      H2163   1.082       .  S
N2164      N2165   1.323       .  A
N2164      C2168   1.346       .  A
N2165      C2166   1.345       .  A
C2166      C2167   1.386       .  A
C2166      H2169   1.082       .  S
C2167      C2168   1.388       .  A
C2167      C2629   1.487       .  S
C2168      H2170   1.081       .  S
O2171     Cu2179   2.010       .  S
O2171      C2181   1.277       .  A
O2172     Cu2179   2.004       .  S
O2173     Cu2179   2.013       .  S
O2173      C2183   1.278       .  A
O2174     Cu2179   2.010       .  S
O2174      C2184   1.278       .  A
O2175     Cu2180   2.005       .  S
O2175      C2184   1.276       .  A
O2176     Cu2180   1.999       .  S
O2176      C2183   1.276       .  A
O2177     Cu2180   2.012       .  S
O2178     Cu2180   2.009       .  S
O2178      C2181   1.278       .  A
Cu2179    Cu2180   2.377       .  S
C2182      C2470   1.467   1_545  S
N2185      N2186   1.322       .  A
N2185     Cu2193   2.082       .  S
N2186      C2187   1.343       .  A
N2186     Cu2192   2.065       .  S
C2187      H2190   1.082       .  S
C2188      C2189   1.386       .  A
C2189      H2191   1.082       .  S
Cu2192     N2195   2.065       .  S
Cu2193     N2203   2.082       .  S
Cu2194     N2196   2.073       .  S
Cu2194     N2202   2.073       .  S
N2195      N2196   1.321       .  A
N2195      C2199   1.343       .  A
C2197      C2198   1.385       .  A
C2197      H2200   1.082       .  S
C2199      H2201   1.082       .  S
N2202      N2203   1.323       .  A
N2202      C2206   1.344       .  A
N2203      C2204   1.345       .  A
C2204      C2205   1.387       .  A
C2204      H2207   1.082       .  S
C2205      C2206   1.385       .  A
C2205      C2617   1.484       .  S
C2206      H2208   1.081       .  S
N2209      N2210   1.322       .  A
N2209     Cu2217   2.082       .  S
N2210      C2211   1.342       .  A
N2210     Cu2216   2.064       .  S
C2211      H2214   1.082       .  S
C2212      C2213   1.386       .  A
C2212      C2431   1.470   1_455  S
C2213      H2215   1.082   1_455  S
Cu2216     N2219   2.064       .  S
Cu2217     N2227   2.082       .  S
Cu2218     N2220   2.075       .  S
Cu2218     N2226   2.075       .  S
N2219      N2220   1.321       .  A
N2219      C2223   1.343       .  A
C2221      C2222   1.385       .  A
C2221      H2224   1.082       .  S
C2222      C2294   1.470       .  S
C2223      H2225   1.082       .  S
N2226      N2227   1.323       .  A
N2226      C2230   1.344       .  A
N2227      C2228   1.345       .  A
C2228      C2229   1.387       .  A
C2228      H2231   1.082       .  S
C2229      C2230   1.385       .  A
C2229      C2620   1.484       .  S
C2230      H2232   1.081       .  S
N2233      N2234   1.322       .  A
N2233      C2237   1.348       .  A
N2233     Cu2241   2.082       .  S
N2234      C2235   1.343       .  A
N2234     Cu2240   2.066       .  S
C2235      C2236   1.381       .  A
C2235      H2238   1.082       .  S
C2236      C2237   1.386       .  A
C2236      C2306   1.470       .  S
C2237      H2239   1.082       .  S
Cu2240     N2243   2.065       .  S
Cu2241     N2251   2.083       .  S
Cu2242     N2244   2.076       .  S
Cu2242     N2250   2.077       .  S
N2243      N2244   1.321       .  A
N2243      C2247   1.343       .  A
N2244      C2245   1.347       .  A
C2245      C2246   1.385       .  A
C2245      H2248   1.082       .  S
C2246      C2247   1.381       .  A
C2247      H2249   1.082       .  S
N2250      N2251   1.323       .  A
N2250      C2254   1.344       .  A
N2251      C2252   1.346       .  A
C2252      C2253   1.387       .  A
C2252      H2255   1.082       .  S
C2253      C2254   1.386       .  A
C2253      C2605   1.486       .  S
C2254      H2256   1.081       .  S
N2257      N2258   1.322       .  A
N2257      C2261   1.347       .  A
N2257     Cu2265   2.081       .  S
N2258      C2259   1.343       .  A
N2258     Cu2264   2.061       .  S
C2259      C2260   1.380       .  A
C2259      H2262   1.082       .  S
C2260      C2261   1.385       .  A
C2260      C2291   1.468       .  S
C2261      H2263   1.082       .  S
Cu2264     N2267   2.061       .  S
Cu2265     N2275   2.081       .  S
Cu2266     N2268   2.076       .  S
Cu2266     N2274   2.076       .  S
N2267      N2268   1.321       .  A
N2267      C2271   1.343       .  A
N2268      C2269   1.346       .  A
C2269      C2270   1.385       .  A
C2269      H2272   1.082       .  S
C2270      C2271   1.380       .  A
C2271      H2273   1.082       .  S
N2274      N2275   1.323       .  A
N2274      C2278   1.345       .  A
N2275      C2276   1.345       .  A
C2276      C2277   1.387       .  A
C2276      H2279   1.082       .  S
C2277      C2278   1.387       .  A
C2277      C2608   1.486       .  S
C2278      H2280   1.081       .  S
O2281     Cu2289   2.005       .  S
O2281      C2291   1.276       .  A
O2282     Cu2289   2.005       .  S
O2282      C2292   1.277       .  A
O2283     Cu2289   2.012       .  S
O2283      C2293   1.279       .  A
O2284     Cu2289   2.011       .  S
O2284      C2294   1.277       .  A
O2286     Cu2290   2.017       .  S
O2286      C2293   1.277       .  A
O2287     Cu2290   2.006       .  S
O2287      C2292   1.277       .  A
O2288     Cu2290   2.011       .  S
O2288      C2291   1.279       .  A
Cu2289    Cu2290   2.376       .  S
O2295     Cu2303   2.011       .  S
O2295      C2305   1.277       .  A
O2296     Cu2303   2.011       .  S
O2296      C2306   1.278       .  A
O2297     Cu2303   2.008       .  S
O2297      C2307   1.278       .  A
O2298     Cu2303   2.010       .  S
O2299     Cu2304   2.009   1_655  S
O2299      C2308   1.278       .  A
O2300      C2307   1.277       .  A
O2301      C2306   1.277       .  A
O2302     Cu2304   2.012   1_655  S
C2305      C2312   1.470       .  S
N2309      N2310   1.322       .  A
N2309     Cu2317   2.083       .  S
N2310      C2311   1.343       .  A
N2310     Cu2316   2.066       .  S
C2311      H2314   1.082       .  S
C2312      C2313   1.386       .  A
C2313      H2315   1.082       .  S
Cu2316     N2319   2.066       .  S
Cu2317     N2327   2.083       .  S
Cu2318     N2320   2.077       .  S
Cu2318     N2326   2.077       .  S
N2319      N2320   1.321       .  A
N2319      C2323   1.343       .  A
N2320      C2321   1.347       .  A
C2321      C2322   1.385       .  A
C2321      H2324   1.082       .  S
C2322      C2323   1.381       .  A
C2323      H2325   1.082       .  S
N2326      N2327   1.323       .  A
N2326      C2330   1.345       .  A
N2327      C2328   1.346       .  A
C2328      C2329   1.387       .  A
C2328      H2331   1.082       .  S
C2329      C2330   1.385       .  A
C2329      C2593   1.484       .  S
C2330      H2332   1.081       .  S
N2333      N2334   1.322       .  A
N2333      C2337   1.347       .  A
N2333     Cu2341   2.083       .  S
N2334      C2335   1.342       .  A
N2334     Cu2340   2.059       .  S
C2335      C2336   1.379       .  A
C2335      H2338   1.082       .  S
C2336      C2337   1.386       .  A
C2336      C2367   1.468       .  S
C2337      H2339   1.082       .  S
Cu2340     N2343   2.059   1_655  S
Cu2341     N2351   2.083       .  S
Cu2342     N2344   2.076   1_655  S
Cu2342     N2350   2.076       .  S
N2343      N2344   1.321       .  A
N2343      C2347   1.343       .  A
C2345      C2346   1.385       .  A
C2345      H2348   1.082       .  S
C2347      H2349   1.082       .  S
N2350      N2351   1.323       .  A
N2350      C2354   1.345       .  A
N2351      C2352   1.346       .  A
C2352      C2353   1.387       .  A
C2352      H2355   1.082       .  S
C2353      C2354   1.385       .  A
C2353      C2596   1.485       .  S
C2354      H2356   1.081       .  S
O2357     Cu2365   2.013       .  S
O2357      C2367   1.279       .  A
O2358     Cu2365   2.008       .  S
O2358      C2368   1.277       .  A
O2359     Cu2365   2.013       .  S
O2359      C2369   1.277       .  A
O2360     Cu2365   2.009       .  S
O2360      C2370   1.278       .  A
O2361     Cu2366   2.014       .  S
O2361      C2370   1.278       .  A
O2362     Cu2366   2.016       .  S
O2362      C2369   1.279       .  A
O2363     Cu2366   2.004       .  S
O2363      C2368   1.277       .  A
O2364     Cu2366   2.004       .  S
O2364      C2367   1.276       .  A
Cu2365    Cu2366   2.376       .  S
C2370      C2408   1.470       .  S
N2371      N2372   1.322       .  A
N2371     Cu2379   2.081       .  S
N2372      C2373   1.343       .  A
N2372     Cu2378   2.066       .  S
C2373      H2376   1.082       .  S
C2374      C2375   1.386       .  A
C2375      H2377   1.082       .  S
Cu2378     N2381   2.065       .  S
Cu2379     N2389   2.082       .  S
Cu2380     N2388   2.072       .  S
N2382      C2383   1.346       .  A
C2383      C2384   1.384       .  A
C2383      H2386   1.082       .  S
C2384      C2385   1.381       .  A
C2385      H2387   1.082       .  S
N2388      N2389   1.323       .  A
N2388      C2392   1.343       .  A
N2389      C2390   1.345       .  A
C2390      C2391   1.387       .  A
C2390      H2393   1.081       .  S
C2391      C2392   1.384       .  A
C2391      C2581   1.483       .  S
N2395      N2396   1.322       .  A
N2395      C2399   1.348       .  A
N2396      C2397   1.342       .  A
C2397      C2398   1.380       .  A
C2397      H2400   1.082       .  S
C2398      C2399   1.386       .  A
C2398      C2556   1.470       .  S
C2399      H2401   1.082       .  S
Cu2402     N2405   2.065       .  S
Cu2403     N2413   2.081       .  S
Cu2404     N2406   2.073       .  S
Cu2404     N2412   2.074       .  S
N2405      N2406   1.321       .  A
N2405      C2409   1.343       .  A
C2407      C2408   1.385       .  A
C2407      H2410   1.082       .  S
C2409      H2411   1.082       .  S
N2412      N2413   1.323       .  A
N2412      C2416   1.343       .  A
N2413      C2414   1.346       .  A
C2414      C2415   1.387       .  A
C2415      C2416   1.385       .  A
C2415      C2584   1.484       .  S
C2416      H2418   1.082       .  S
O2419     Cu2427   2.003       .  S
O2419      C2429   1.276       .  A
O2420     Cu2427   2.004       .  S
O2420      C2430   1.277       .  A
O2421     Cu2427   2.008       .  S
O2421      C2431   1.278       .  A
O2422     Cu2427   2.009       .  S
O2422      C2432   1.277       .  A
O2423     Cu2428   2.012       .  S
O2423      C2432   1.278       .  A
O2424     Cu2428   2.015       .  S
O2424      C2431   1.277       .  A
O2425     Cu2428   2.012       .  S
O2425      C2430   1.277       .  A
O2426     Cu2428   2.014       .  S
O2426      C2429   1.279       .  A
Cu2427    Cu2428   2.376       .  S
C2430      C2460   1.468       .  S
N2433      N2434   1.322       .  A
N2433      C2437   1.346       .  A
N2433     Cu2441   2.075       .  S
N2434      C2435   1.343       .  A
N2434     Cu2440   2.064       .  S
C2435      C2436   1.380       .  A
C2435      H2438   1.082       .  S
C2436      C2437   1.384       .  A
C2436      C2491   1.466       .  S
C2437      H2439   1.082       .  S
Cu2440     N2443   2.064       .  S
Cu2441     N2451   2.075       .  S
Cu2442     N2444   2.064       .  S
Cu2442     N2450   2.064       .  S
N2443      N2444   1.321       .  A
N2443      C2447   1.343       .  A
N2444      C2445   1.344       .  A
C2445      C2446   1.382       .  A
C2445      H2448   1.082       .  S
C2446      C2447   1.381       .  A
C2447      H2449   1.082       .  S
N2450      N2451   1.322       .  A
N2450      C2454   1.342       .  A
N2451      C2452   1.344       .  A
C2452      C2453   1.386       .  A
C2452      H2455   1.082       .  S
C2453      C2454   1.384       .  A
C2453      C2569   1.480       .  S
C2454      H2456   1.081       .  S
N2457      N2458   1.322       .  A
N2457      C2461   1.347       .  A
N2457     Cu2465   2.077       .  S
N2458      C2459   1.342       .  A
N2458     Cu2464   2.068       .  S
C2459      C2460   1.381       .  A
C2459      H2462   1.082       .  S
C2460      C2461   1.385       .  A
C2461      H2463   1.082       .  S
Cu2464     N2467   2.068       .  S
Cu2465     N2475   2.077       .  S
Cu2466     N2468   2.066       .  S
Cu2466     N2474   2.066       .  S
N2467      N2468   1.321       .  A
N2467      C2471   1.343       .  A
N2468      C2469   1.345       .  A
C2469      C2470   1.383       .  A
C2469      H2472   1.082       .  S
C2470      C2471   1.382       .  A
C2471      H2473   1.082       .  S
N2474      N2475   1.322       .  A
N2474      C2478   1.342       .  A
N2475      C2476   1.345       .  A
C2476      C2477   1.386       .  A
C2476      H2479   1.082       .  S
C2477      C2478   1.384       .  A
C2477      C2572   1.481       .  S
C2478      H2480   1.081       .  S
O2481     Cu2489   2.006       .  S
O2482     Cu2489   2.007       .  S
O2482      C2492   1.278       .  A
O2483     Cu2489   2.011       .  S
O2483      C2493   1.278       .  A
O2484      C2494   1.277       .  A
O2485     Cu2490   2.013       .  S
O2485      C2494   1.279       .  A
O2486     Cu2490   2.014       .  S
O2487     Cu2490   2.005   1_545  S
O2488     Cu2490   2.007       .  S
O2488      C2491   1.278       .  A
N2495      N2496   1.322       .  A
N2495     Cu2503   2.075       .  S
N2496      C2497   1.342       .  A
N2496     Cu2502   2.063       .  S
C2497      H2500   1.082       .  S
C2498      C2499   1.384       .  A
C2499      H2501   1.082       .  S
Cu2502     N2505   2.063       .  S
Cu2503     N2513   2.075       .  S
Cu2504     N2506   2.065       .  S
Cu2504     N2512   2.065       .  S
N2505      N2506   1.321       .  A
N2505      C2509   1.343       .  A
N2506      C2507   1.345       .  A
C2507      C2508   1.383       .  A
C2507      H2510   1.082       .  S
C2508      C2509   1.381       .  A
C2509      H2511   1.082       .  S
N2512      N2513   1.322       .  A
N2512      C2516   1.342       .  A
N2513      C2514   1.345       .  A
C2514      C2515   1.386       .  A
C2514      H2517   1.081       .  S
C2515      C2516   1.383       .  A
C2515      C2557   1.479       .  S
C2516      H2518   1.082       .  S
N2519      N2520   1.322       .  A
N2519      C2523   1.347       .  A
N2519     Cu2527   2.075       .  S
N2520      C2521   1.342       .  A
N2520     Cu2526   2.068       .  S
C2521      C2522   1.381       .  A
C2521      H2524   1.082       .  S
C2522      C2523   1.384       .  A
C2522      C2553   1.468       .  S
C2523      H2525   1.082       .  S
Cu2526     N2529   2.068       .  S
Cu2527     N2537   2.075       .  S
Cu2528     N2530   2.066       .  S
Cu2528     N2536   2.066       .  S
N2529      N2530   1.321       .  A
N2529      C2533   1.343       .  A
N2530      C2531   1.345       .  A
C2531      C2532   1.383       .  A
C2531      H2534   1.082       .  S
C2532      C2533   1.382       .  A
C2533      H2535   1.082       .  S
N2536      N2537   1.322       .  A
N2536      C2540   1.342       .  A
N2537      C2538   1.345       .  A
C2538      C2539   1.386       .  A
C2538      H2541   1.081       .  S
C2539      C2540   1.384       .  A
C2539      C2560   1.480       .  S
C2540      H2542   1.082       .  S
O2543     Cu2551   2.012       .  S
O2543      C2553   1.278       .  A
O2544     Cu2551   2.014       .  S
O2544      C2554   1.279       .  A
O2545     Cu2551   2.009       .  S
O2545      C2555   1.278       .  A
O2546     Cu2551   2.012       .  S
O2546      C2556   1.277       .  A
O2547     Cu2552   2.010       .  S
O2547      C2556   1.278       .  A
O2548     Cu2552   2.011       .  S
O2548      C2555   1.277       .  A
O2549     Cu2552   2.002       .  S
O2549      C2554   1.276       .  A
O2550     Cu2552   2.003       .  S
O2550      C2553   1.277       .  A
Cu2551    Cu2552   2.376       .  S
C2557      C2558   1.405       .  A
C2557      C2562   1.408       .  A
C2558      C2559   1.399       .  A
C2558      H2563   1.083       .  S
C2559      C2560   1.408       .  A
C2559      O2564   1.372       .  S
C2560      C2561   1.405       .  A
C2561      C2562   1.399       .  A
C2561      H2565   1.083       .  S
C2562      O2566   1.372       .  S
O2564      H2568   0.992       .  S
O2566      H2567   0.992       .  S
C2569      C2570   1.403       .  A
C2569      C2574   1.411       .  A
C2570      C2571   1.399       .  A
C2570      H2575   1.083       .  S
C2571      C2572   1.411       .  A
C2571      O2576   1.371       .  S
C2572      C2573   1.403       .  A
C2573      C2574   1.400       .  A
C2573      H2577   1.083       .  S
C2574      O2578   1.372       .  S
O2576      H2580   0.992       .  S
O2578      H2579   0.992       .  S
C2581      C2582   1.406       .  A
C2581      C2586   1.409       .  A
C2582      C2583   1.400       .  A
C2582      H2587   1.083       .  S
C2583      C2584   1.410       .  A
C2583      O2588   1.371       .  S
C2584      C2585   1.406       .  A
C2585      C2586   1.399       .  A
C2585      H2589   1.083       .  S
C2586      O2590   1.371       .  S
O2588      H2592   0.992       .  S
O2590      H2591   0.992       .  S
C2593      C2594   1.404       .  A
C2593      C2598   1.410       .  A
C2594      C2595   1.401       .  A
C2594      H2599   1.083       .  S
C2595      C2596   1.410       .  A
C2595      O2600   1.372       .  S
C2596      C2597   1.405       .  A
C2597      C2598   1.402       .  A
C2597      H2601   1.083       .  S
C2598      O2602   1.372       .  S
O2600      H2604   0.992       .  S
O2602      H2603   0.992       .  S
C2605      C2606   1.405       .  A
C2605      C2610   1.412       .  A
C2606      C2607   1.401       .  A
C2606      H2611   1.083       .  S
C2607      C2608   1.412       .  A
C2607      O2612   1.371       .  S
C2608      C2609   1.404       .  A
C2609      C2610   1.400       .  A
C2609      H2613   1.083       .  S
C2610      O2614   1.371       .  S
O2612      H2616   0.992       .  S
O2614      H2615   0.992       .  S
C2617      C2618   1.405       .  A
C2617      C2622   1.411       .  A
C2618      C2619   1.400       .  A
C2618      H2623   1.083       .  S
C2619      C2620   1.411       .  A
C2619      O2624   1.371       .  S
C2620      C2621   1.404       .  A
C2621      C2622   1.399       .  A
C2621      H2625   1.083       .  S
C2622      O2626   1.371       .  S
O2624      H2628   0.992       .  S
O2626      H2627   0.992       .  S
C2629      C2634   1.411       .  A
C2630      C2631   1.401       .  A
C2630      H2635   1.083       .  S
C2631      O2636   1.371   1_455  S
C2632      C2633   1.406       .  A
C2633      C2634   1.401       .  A
C2633      H2637   1.083   1_556  S
C2634      O2638   1.371       .  S
O2636      H2640   0.992       .  S
O2638      H2639   0.992       .  S
C2641      C2646   1.409   1_554  A
C2642      C2643   1.397       .  A
C2642      H2647   1.083       .  S
C2643      O2648   1.371       .  S
C2644      C2645   1.405       .  A
C2645      C2646   1.397       .  A
C2645      H2649   1.083       .  S
C2646      O2650   1.371       .  S
O2648      H2652   0.992       .  S
O2650      H2651   0.992   1_556  S
C2653      C2654   1.403       .  A
C2653      C2658   1.413       .  A
C2654      C2655   1.401       .  A
C2654      H2659   1.083       .  S
C2655      C2656   1.413       .  A
C2655      O2660   1.371       .  S
C2656      C2657   1.403       .  A
C2657      C2658   1.400       .  A
C2657      H2661   1.083       .  S
C2658      O2662   1.371       .  S
O2660      H2664   0.992       .  S
O2662      H2663   0.992       .  S
