geometry optimzed in LAMMPS
_audit_creation_date              2020-11-30 
_audit_creation_method            'lammps2cif' 
_symmetry_space_group_name_H-M    'P1' 
_symmetry_Int_Tables_number       1 
_symmetry_cell_setting            triclinic 
loop_ 
_symmetry_equiv_pos_as_xyz 
  x,y,z 
_cell_length_a                    30.09069537 
_cell_length_b                    36.292840788511754 
_cell_length_c                    39.01863510249937 
_cell_angle_alpha                 94.20753519481843 
_cell_angle_beta                  88.35868550440236 
_cell_angle_gamma                 114.93866991429574 
loop_ 
_atom_site_label 
_atom_site_type_symbol 
_atom_site_fract_x 
_atom_site_fract_y 
_atom_site_fract_z 
_atom_site_charge 
O1          O  0.41869479  0.14345050  0.88359929    -0.81800
O2          O  0.32856002  0.23552543  0.79668019    -0.66500
O3          O  0.35714161  0.18011771  0.86647590    -1.13100
C4          C  0.26719428  0.06284990  0.79069425     1.05100
O5          O  0.25279260  0.19037933  0.79814018    -0.79700
O6          O  0.21561720  0.11789320  0.82658048    -0.67300
Ni7        Ni  0.42296656  0.19770249  0.88117628     1.34900
C8          C  0.22499193  0.11322729  0.85703594     0.83800
O9          O  0.36992260  0.25973579  0.85958060    -0.80200
O10         O  0.43453536  0.25467413  0.88253238    -0.90500
C11         C  0.28442045  0.22352340  0.78749506     0.83400
O12         O  0.44738156  0.19747310  0.83570991    -0.68700
O13         O  0.25287926  0.08545218  0.77479849    -0.88000
C14         C  0.44565546  0.21950837  0.81270881     0.84200
C15         C  0.40974370  0.27484950  0.87678430     1.05800
H16         H  0.34121089  0.15777047  0.78820253     0.37600
O17         O  0.31893873  0.15749376  0.80662115    -1.10600
O18         O  0.26776382  0.11973354  0.86634452    -0.67300
Ni19       Ni  0.32718856  0.12782483  0.84198987     1.26300
O20         O  0.40836886  0.22705984  0.80945710    -0.67500
O21         O  0.29508072  0.07549701  0.81708427    -0.79800
C22         C  0.38333919  0.10867678  0.88622842     0.83600
O23         O  0.34013428  0.10050953  0.87704327    -0.67000
Ni24       Ni  0.25502095  0.13863065  0.78708560     1.27400
Ni25       Ni  0.34482269  0.20944533  0.83198529     1.26100
H26         H  0.33808473  0.18117061  0.88657794     0.38200
C27         C  0.18994769  0.39084786  0.73898573     0.85600
C28         C  0.21964283  0.36706823  0.74760847    -0.54600
C29         C  0.20152916  0.32715291  0.73470757     0.08500
C30         C  0.15287841  0.31476707  0.71517837     0.19500
C31         C  0.18186555  0.38444233  0.69964481    -0.55400
C32         C  0.16364911  0.34480411  0.68680003     0.08600
C33         C  0.13812232  0.36517388  0.75247044    -0.54900
C34         C  0.11933524  0.32505797  0.74114905     0.09200
H35         H  0.25041097  0.38055822  0.76519097     0.13700
H36         H  0.13699834  0.28342650  0.70444723    -0.00500
H37         H  0.18727734  0.40918053  0.68373752     0.14000
H38         H  0.11813661  0.37703873  0.77019214     0.13800
C39         C  0.48548844  0.44532899  0.93144752     0.85600
C40         C  0.03198077  0.47506049  0.91338974    -0.54600
C41         C  0.04662250  0.01512861  0.92406863     0.08500
C42         C  0.01166065  0.02255325  0.94996858     0.19500
C43         C  0.49592873  0.45620543  0.97004715    -0.55400
C44         C  0.00893747  0.99645419  0.98026015     0.08600
C45         C  0.44749918  0.46138794  0.92323039    -0.54900
C46         C  0.46104744  0.00164050  0.93236183     0.09200
H47         H  0.05108737  0.46635706  0.89274814     0.13700
H48         H  0.02291300  0.05538322  0.95671853    -0.00500
H49         H  0.49307001  0.43324061  0.98725532     0.14000
H50         H  0.41342675  0.44280325  0.90976077     0.13800
O51         O  0.12461044  0.03209753  0.46524662    -0.81800
O52         O  0.42618490  0.43983483  0.53686532    -0.66500
O53         O  0.02244569  0.49722803  0.47190350    -1.13100
C54         C  0.04015202  0.11187500  0.54814150     1.05100
O55         O  0.39417357  0.48460547  0.53568620    -0.79700
O56         O  0.43756447  0.05743792  0.50682711    -0.67300
Ni57       Ni  0.07083146  0.47950206  0.45547642     1.34900
C58         C  0.45929605  0.06591214  0.47816314     0.83800
O59         O  0.45599587  0.41576435  0.47762421    -0.80200
O60         O  0.02143032  0.42573184  0.44368120    -0.90500
C61         C  0.39080086  0.44970839  0.54227330     0.83400
O62         O  0.08321511  0.46101840  0.49716055    -0.68700
O63         O  0.99911762  0.08877305  0.56090729    -0.88000
C64         C  0.05922218  0.45073833  0.52481719     0.84200
C65         C  0.47893914  0.40338388  0.45490699     1.05800
H66         H  0.01489527  0.01800613  0.54958810     0.37600
O67         O  0.99653984  0.01841539  0.52985000    -1.10600
O68         O  0.99782874  0.06074366  0.47083212    -0.67300
Ni69       Ni  0.04294691  0.04891163  0.49724743     1.26300
O70         O  0.01917066  0.45391267  0.53069229    -0.67500
O71         O  0.06161921  0.10035154  0.52369274    -0.79800
C72         C  0.12665712  0.06643911  0.45812616     0.83600
O73         O  0.09127617  0.07611841  0.46432447    -0.67000
Ni74       Ni  0.44876650  0.03614979  0.54736488     1.27400
Ni75       Ni  0.47529144  0.46693360  0.50424917     1.26100
H76         H  0.00443963  0.49745146  0.45165165     0.38200
C77         C  0.39144302  0.23222890  0.40094032     0.85600
C78         C  0.33676547  0.21344477  0.41031582    -0.54600
C79         C  0.31200745  0.17295954  0.40106506     0.08500
C80         C  0.34442063  0.15460255  0.38174782     0.19500
C81         C  0.40985070  0.20369593  0.41771280    -0.55400
C82         C  0.38668584  0.16331834  0.40676388     0.08600
C83         C  0.39283395  0.22242622  0.36207722    -0.54900
C84         C  0.36817764  0.18204517  0.35167582     0.09200
H85         H  0.31964772  0.23021993  0.42544512     0.13700
H86         H  0.32439262  0.12187821  0.37377078    -0.00500
H87         H  0.43666401  0.21343254  0.43819424     0.14000
H88         H  0.41213397  0.24592644  0.34459669     0.13800
C89         C  0.12556657  0.28401847  0.59837768     0.85600
C90         C  0.12828958  0.29210660  0.63745502    -0.54600
C91         C  0.15447372  0.33175386  0.64914567     0.08500
C92         C  0.17455688  0.36065874  0.61962024     0.19500
C93         C  0.10503519  0.31323153  0.58557949    -0.55400
C94         C  0.12953071  0.35341822  0.59750534     0.08600
C95         C  0.17851603  0.30320414  0.58543053    -0.54900
C96         C  0.20410146  0.34296275  0.59612485     0.09200
H97         H  0.10994997  0.26737422  0.65392377     0.13700
H98         H  0.19606614  0.39259547  0.62895338    -0.00500
H99         H  0.07676911  0.30445359  0.56621846     0.14000
H100        H  0.19377534  0.28724716  0.56751760     0.13800
O101        O  0.27880774  0.31284580  0.21102327    -0.81800
O102        O  0.18343438  0.40905964  0.13190560    -0.66500
O103        O  0.21394063  0.34781923  0.19650197    -1.13100
C104        C  0.12624192  0.23717295  0.11470714     1.05100
O105        O  0.10882863  0.36337336  0.13502416    -0.79700
O106        O  0.07348711  0.28927142  0.15923379    -0.67300
Ni107      Ni  0.27901584  0.36599476  0.21358804     1.34900
C108        C  0.08450962  0.27943306  0.18720448     0.83800
O109        O  0.22559111  0.42867069  0.19451989    -0.80200
O110        O  0.28745635  0.42178165  0.21989885    -0.90500
C111        C  0.13859550  0.39699258  0.12425715     0.83400
O112        O  0.30837850  0.37398354  0.16951925    -0.68700
O113        O  0.10830905  0.26033739  0.10361635    -0.88000
C114        C  0.30352144  0.39496323  0.14663634     0.84200
C115        C  0.26402679  0.44251566  0.21310797     1.05800
H116        H  0.19695408  0.33279985  0.11709827     0.37600
O117        O  0.17564289  0.33026968  0.13662215    -1.10600
O118        O  0.12739099  0.28340727  0.19348596    -0.67300
Ni119      Ni  0.18723108  0.29781218  0.16801932     1.26300
O120        O  0.26411471  0.39923554  0.14254819    -0.67500
O121        O  0.15815494  0.24825175  0.13876490    -0.79800
C122        C  0.24527664  0.27690040  0.21054254     0.83600
O123        O  0.20256595  0.26740723  0.19945089    -0.67000
Ni124      Ni  0.11065298  0.31254674  0.11959997     1.27400
Ni125      Ni  0.20077211  0.38010369  0.16482470     1.26100
H126        H  0.19328625  0.34582411  0.21634077     0.38200
C127        C  0.04410374  0.06420370  0.06563878     0.85600
C128        C  0.07409323  0.04149678  0.07764958    -0.54600
C129        C  0.05466703  0.50012196  0.06811085     0.08500
C130        C  0.50619163  0.48610551  0.04783568     0.19500
C131        C  0.03786963  0.05371027  0.02679311    -0.55400
C132        C  0.01833194  0.01302915  0.01706841     0.08600
C133        C  0.49396111  0.03977163  0.08150450    -0.54900
C134        C  0.47346073  0.49949261  0.07194652     0.09200
H135        H  0.10629450  0.05665205  0.09386056     0.13700
H136        H  0.48897349  0.45359336  0.03969129    -0.00500
H137        H  0.04887838  0.07734001  0.00882994     0.14000
H138        H  0.47893043  0.05159949  0.10288334     0.13800
C139        C  0.34453718  0.11465088  0.26621590     0.85600
C140        C  0.39555273  0.14306045  0.25285024    -0.54600
C141        C  0.41026630  0.18397546  0.26160023     0.08500
C142        C  0.37185845  0.19245282  0.28382485     0.19500
C143        C  0.35138638  0.12612449  0.30520536    -0.55400
C144        C  0.36327436  0.16612704  0.31477122     0.08600
C145        C  0.30989741  0.13230995  0.25404908    -0.54900
C146        C  0.32428280  0.17274838  0.26245962     0.09200
H147        H  0.41878140  0.13162592  0.23819301     0.13700
H148        H  0.38232913  0.22487454  0.29158084    -0.00500
H149        H  0.35431100  0.10630835  0.32345796     0.14000
H150        H  0.27755975  0.11449326  0.23845877     0.13800
C151        C  0.39267727  0.44128807  0.14379886    -0.02700
C152        C  0.34742576  0.41876130  0.12643403     0.06900
C153        C  0.34397369  0.42281340  0.09103394    -0.02800
C154        C  0.38512363  0.44933519  0.07327966    -0.02900
C155        C  0.43006457  0.47133613  0.09047225     0.07100
C156        C  0.43365958  0.46736261  0.12589361    -0.03000
Br157      Br  0.49557914  0.99601151  0.14998496    -0.01600
Br158      Br  0.39921948  0.93940198  0.19285382    -0.01700
Br159      Br  0.37909165  0.45748109  0.02591175    -0.01600
Br160      Br  0.28340073  0.39148018  0.06644669    -0.01600
C161        C  0.13568944  0.17772454  0.08277625    -0.02700
C162        C  0.10597611  0.19427757  0.10020515     0.06900
C163        C  0.05512096  0.17047513  0.10178741    -0.02800
C164        C  0.03436089  0.13049638  0.08666064    -0.02900
C165        C  0.06493297  0.11088120  0.07483093     0.07100
C166        C  0.11520745  0.13660026  0.06947228    -0.03000
Br167      Br  0.15473037  0.11842196  0.03917588    -0.01600
Br168      Br  0.20392359  0.21221942  0.07545451    -0.01700
Br169      Br  0.46552867  0.10957733  0.07459280    -0.01600
Br170      Br  0.01293532  0.19213497  0.12553148    -0.01600
C171        C  0.14905596  0.46212940  0.09599485    -0.02700
C172        C  0.11923507  0.42199623  0.10527516     0.06900
C173        C  0.06888159  0.40530085  0.09628125    -0.02800
C174        C  0.04704561  0.43061739  0.08683470    -0.02900
C175        C  0.07648689  0.47156464  0.07858295     0.07100
C176        C  0.12810372  0.48494845  0.08007807    -0.03000
Br177      Br  0.17122511  0.03161512  0.05626426    -0.01600
Br178      Br  0.21898447  0.48697055  0.10356533    -0.01700
Br179      Br  0.47644854  0.40638803  0.08893432    -0.01600
Br180      Br  0.02864849  0.34672868  0.09339841    -0.01600
C181        C  0.27614192  0.21504243  0.27073776    -0.02700
C182        C  0.29932257  0.19623851  0.24846931     0.06900
C183        C  0.30073546  0.20172296  0.21282140    -0.02800
C184        C  0.28030100  0.22640861  0.20007816    -0.02900
C185        C  0.25799468  0.24537432  0.22267402     0.07100
C186        C  0.25487327  0.23900251  0.25782285    -0.03000
Br187      Br  0.22292147  0.26461924  0.28830904    -0.01600
Br188      Br  0.27484713  0.20980013  0.31910328    -0.01700
Br189      Br  0.28542124  0.23659631  0.15191999    -0.01600
Br190      Br  0.33609244  0.18048275  0.18156684    -0.01600
C191        C  0.27684224  0.99487924  0.26129380    -0.02700
C192        C  0.28395833  0.98531320  0.22684969     0.06900
C193        C  0.31054104  0.01637113  0.20538132    -0.02800
C194        C  0.32978894  0.05748631  0.21800401    -0.02900
C195        C  0.32508665  0.06860134  0.25357617     0.07100
C196        C  0.29555868  0.03590322  0.27459074    -0.03000
Br197      Br  0.27169008  0.04315044  0.31988218    -0.01600
Br198      Br  0.23875405  0.45053985  0.28969770    -0.01700
Br199      Br  0.35813067  0.09660406  0.18365262    -0.01600
Br200      Br  0.32107044  0.00191105  0.15810115    -0.01600
C201        C  0.04255094  0.22828954  0.23164560    -0.02700
C202        C  0.04496745  0.26107342  0.21291971     0.06900
C203        C  0.00741514  0.27462412  0.21746657    -0.02800
C204        C  0.46422087  0.25161923  0.23542307    -0.02900
C205        C  0.45907415  0.21544674  0.25036396     0.07100
C206        C  0.50082619  0.20700417  0.25144484    -0.03000
Br207      Br  0.50231428  0.16754084  0.28167194    -0.01600
Br208      Br  0.09386417  0.20938351  0.22879847    -0.01700
Br209      Br  0.41373728  0.27116723  0.23807463    -0.01600
Br210      Br  0.01576648  0.32576212  0.19995552    -0.01600
C211        C  0.22419790  0.12041930  0.39380155    -0.02700
C212        C  0.26253453  0.14809361  0.41539756     0.06900
C213        C  0.25457858  0.14959573  0.45151328    -0.02800
C214        C  0.20941568  0.12354649  0.46528232    -0.02900
C215        C  0.17204753  0.09601260  0.44353062     0.07100
C216        C  0.17913894  0.09469291  0.40787745    -0.03000
Br217      Br  0.12688678  0.05655391  0.37851128    -0.01600
Br218      Br  0.23207129  0.11645852  0.34494402    -0.01700
Br219      Br  0.19929897  0.12359172  0.51427775    -0.01600
Br220      Br  0.30659300  0.18290699  0.48337923    -0.01600
C221        C  0.41265720  0.34482726  0.42227251    -0.02700
C222        C  0.45643945  0.36035011  0.44118931     0.06900
C223        C  0.48222151  0.33611173  0.44373180    -0.02800
C224        C  0.46499931  0.29696198  0.42689790    -0.02900
C225        C  0.41749659  0.27859092  0.41165758     0.07100
C226        C  0.39389969  0.30476231  0.40686690    -0.03000
Br227      Br  0.33903385  0.28901113  0.37610956    -0.01600
Br228      Br  0.37907806  0.37916898  0.41668381    -0.01700
Br229      Br  0.51363492  0.27609365  0.41714935    -0.01600
Br230      Br  0.04103552  0.35606348  0.47151888    -0.01600
C231        C  0.45255030  0.13955921  0.41574433    -0.02700
C232        C  0.40263354  0.13217236  0.41846612     0.06900
C233        C  0.37019780  0.09694304  0.43443356    -0.02800
C234        C  0.38856924  0.07295314  0.45102714    -0.02900
C235        C  0.43963750  0.08471364  0.45324910     0.07100
C236        C  0.47151819  0.11754117  0.43437155    -0.03000
Br237      Br  0.54184476  0.13606570  0.43616770    -0.01600
Br238      Br  0.49465857  0.17813816  0.38444980    -0.01700
Br239      Br  0.34305242  0.02354290  0.47060435    -0.01600
Br240      Br  0.30063022  0.08067649  0.43510464    -0.01600
C241        C  0.29458455  0.38282701  0.60231629    -0.02700
C242        C  0.25264092  0.36781654  0.58139831     0.06900
C243        C  0.25694935  0.37679615  0.54646537    -0.02800
C244        C  0.30268067  0.40276826  0.53339952    -0.02900
C245        C  0.34403075  0.41977742  0.55509166     0.07100
C246        C  0.34013933  0.40933272  0.58943988    -0.03000
Br247      Br  0.39670400  0.43280724  0.61923703    -0.01600
Br248      Br  0.28959787  0.36495799  0.64790890    -0.01700
Br249      Br  0.30892443  0.41487771  0.48571161    -0.01600
Br250      Br  0.20002827  0.35563920  0.51680856    -0.01600
C251        C  0.12486060  0.21254895  0.59385674    -0.02700
C252        C  0.10024189  0.23776854  0.58803533     0.06900
C253        C  0.05210164  0.21817299  0.57413459    -0.02800
C254        C  0.03497921  0.17837420  0.55868217    -0.02900
C255        C  0.06185829  0.15502446  0.56153350     0.07100
C256        C  0.10565635  0.17157364  0.58052934    -0.03000
Br257      Br  0.13715574  0.13696674  0.59050849    -0.01600
Br258      Br  0.18251786  0.23176070  0.62300093    -0.01700
Br259      Br  0.47349457  0.15560619  0.53379439    -0.01600
Br260      Br  0.00294552  0.23818556  0.58481133    -0.01600
C261        C  0.06341389  0.37636275  0.58708574    -0.02700
C262        C  0.11396232  0.38552806  0.58717783     0.06900
C263        C  0.14688565  0.42276065  0.57385337    -0.02800
C264        C  0.12863840  0.44593202  0.55587183    -0.02900
C265        C  0.07774789  0.43199031  0.55037731     0.07100
C266        C  0.04506464  0.39769646  0.56725493    -0.03000
Br267      Br  0.97483666  0.37604270  0.56081969    -0.01600
Br268      Br  0.01906136  0.33644029  0.61638851    -0.01700
Br269      Br  0.17377707  0.49731956  0.53890558    -0.01600
Br270      Br  0.21682773  0.44423450  0.57966779    -0.01600
C271        C  0.39967642  0.33080226  0.91336745    -0.02700
C272        C  0.42874168  0.31777197  0.89117937     0.06900
C273        C  0.47812596  0.34447874  0.88628311    -0.02800
C274        C  0.49858458  0.38311662  0.90392996    -0.02900
C275        C  0.46785517  0.39920064  0.92131145     0.07100
C276        C  0.41894405  0.37107882  0.92842421    -0.03000
Br277      Br  0.37851233  0.38529632  0.96120900    -0.01600
Br278      Br  0.33373557  0.29296048  0.92421010    -0.01700
Br279      Br  0.06843711  0.40610359  0.91221834    -0.01600
Br280      Br  0.01791873  0.32974128  0.85351137    -0.01600
C281        C  0.13814334  0.04572310  0.92237608    -0.02700
C282        C  0.09411866  0.04730084  0.91310617     0.06900
C283        C  0.09615300  0.07840912  0.89263461    -0.02800
C284        C  0.14053844  0.10322101  0.87703676    -0.02900
C285        C  0.18329890  0.09696984  0.88170689     0.07100
C286        C  0.18280443  0.07081783  0.90726153    -0.03000
Br287      Br  0.24171851  0.06742794  0.92195380    -0.01600
Br288      Br  0.13712397  0.50911813  0.95631487    -0.01700
Br289      Br  0.14256415  0.14678097  0.85024778    -0.01600
Br290      Br  0.03865636  0.08705941  0.88480606    -0.01600
C291        C  0.40556016  0.07818045  0.93370804    -0.02700
C292        C  0.39433428  0.07654488  0.89888686     0.06900
C293        C  0.39983454  0.04751302  0.87539845    -0.02800
C294        C  0.42035976  0.02200172  0.88627396    -0.02900
C295        C  0.43336045  0.02436660  0.92135020     0.07100
C296        C  0.42413101  0.05166606  0.94506264    -0.03000
Br297      Br  0.93629937  0.05341081  0.99324008    -0.01600
Br298      Br  0.39632909  0.11768093  0.96561326    -0.01700
Br299      Br  0.43726483  0.48919764  0.85145053    -0.01600
Br300      Br  0.38299965  0.04515380  0.82761483    -0.01600
C301        C  0.22035569  0.23105051  0.75285669    -0.02700
C302        C  0.26798676  0.24880311  0.76691616     0.06900
C303        C  0.29723978  0.29045386  0.76220334    -0.02800
C304        C  0.27662173  0.31419500  0.74745469    -0.02900
C305        C  0.22491328  0.29854188  0.74202283     0.07100
C306        C  0.19707406  0.25562076  0.74452863    -0.03000
Br307      Br  0.12644111  0.22695148  0.74211544    -0.01600
Br308      Br  0.18740612  0.17255311  0.74208302    -0.01700
Br309      Br  0.32169203  0.36698230  0.73293225    -0.01600
Br310      Br  0.36600199  0.31603100  0.77481215    -0.01600
C311        C  0.48704563  0.25145085  0.75801897    -0.02700
C312        C  0.49052582  0.24046145  0.79162130     0.06900
C313        C  0.03776680  0.25439891  0.80686982    -0.02800
C314        C  0.07950899  0.28144987  0.79001931    -0.02900
C315        C  0.07531990  0.29416793  0.75744575     0.07100
C316        C  0.02923750  0.27851400  0.74130043    -0.03000
Br317      Br  0.02388481  0.29607609  0.69691302    -0.01600
Br318      Br  0.42509567  0.22841849  0.73392576    -0.01700
Br319      Br  0.14284704  0.30118629  0.81214210    -0.01600
Br320      Br  0.04720700  0.23996634  0.85220283    -0.01600
C321        C  0.21959897  0.48843068  0.79887787    -0.02700
C322        C  0.25008521  0.01941699  0.77819124     0.06900
C323        C  0.26710234  0.00865599  0.74685951    -0.02800
C324        C  0.25039821  0.46726306  0.73483738    -0.02900
C325        C  0.21446832  0.43590432  0.75367192     0.07100
C326        C  0.20542093  0.44718336  0.78797093    -0.03000
Br327      Br  0.18434866  0.40858427  0.82316268    -0.01600
Br328      Br  0.19530805  0.50211036  0.84192903    -0.01700
Br329      Br  0.28446598  0.45503193  0.69602360    -0.01600
Br330      Br  0.31578038  0.05107528  0.72152491    -0.01600
O331        O  0.41869455  0.64345051  0.88359952    -0.81800
O332        O  0.32855869  0.73552465  0.79668020    -0.66500
O333        O  0.35714106  0.68011725  0.86647580    -1.13100
C334        C  0.26719446  0.56284947  0.79069382     1.05100
O335        O  0.25279129  0.69037840  0.79814018    -0.79700
O336        O  0.21561663  0.61789201  0.82658041    -0.67300
Ni337      Ni  0.42296622  0.69770240  0.88117595     1.34900
C338        C  0.22499141  0.61322617  0.85703590     0.83800
O339        O  0.36992164  0.75973523  0.85958042    -0.80200
O340        O  0.43453503  0.75467402  0.88253157    -0.90500
C341        C  0.28441903  0.72352273  0.78749532     0.83400
O342        O  0.44738074  0.69747258  0.83570943    -0.68700
O343        O  0.25287918  0.58545167  0.77479816    -0.88000
C344        C  0.44565457  0.71950797  0.81270845     0.84200
C345        C  0.40974313  0.77484923  0.87678367     1.05800
H346        H  0.34121026  0.65777000  0.78820239     0.37600
O347        O  0.31893802  0.65749318  0.80662110    -1.10600
O348        O  0.26776338  0.61973265  0.86634450    -0.67300
Ni349      Ni  0.32718821  0.62782433  0.84198974     1.26300
O350        O  0.40836789  0.72705939  0.80945689    -0.67500
O351        O  0.29508067  0.57549655  0.81708397    -0.79800
C352        C  0.38333910  0.60867669  0.88622862     0.83600
O353        O  0.34013422  0.60050910  0.87704311    -0.67000
Ni354      Ni  0.25502024  0.63862989  0.78708552     1.27400
Ni355      Ni  0.34482178  0.70944472  0.83198521     1.26100
H356        H  0.33808428  0.68117005  0.88657782     0.38200
C357        C  0.18994651  0.89084811  0.73898602     0.85600
C358        C  0.21964176  0.86706852  0.74760881    -0.54600
C359        C  0.20152816  0.82715314  0.73470799     0.08500
C360        C  0.15287754  0.81476729  0.71517866     0.19500
C361        C  0.18186432  0.88444254  0.69964512    -0.55400
C362        C  0.16364812  0.84480435  0.68680035     0.08600
C363        C  0.13812112  0.86517399  0.75247068    -0.54900
C364        C  0.11933422  0.82505809  0.74114925     0.09200
H365        H  0.25040982  0.88055857  0.76519137     0.13700
H366        H  0.13699763  0.78342675  0.70444747    -0.00500
H367        H  0.18727552  0.90918061  0.68373785     0.14000
H368        H  0.11813524  0.87703876  0.77019229     0.13800
C369        C  0.48548839  0.94532890  0.93144667     0.85600
C370        C  0.03198128  0.97506105  0.91338900    -0.54600
C371        C  0.04662195  0.51512813  0.92406908     0.08500
C372        C  0.01165997  0.52255299  0.94996879     0.19500
C373        C  0.49592848  0.95620505  0.97004637    -0.55400
C374        C  0.00893658  0.49645416  0.98026056     0.08600
C375        C  0.44749895  0.96138767  0.92322962    -0.54900
C376        C  0.46104803  0.50164090  0.93236238     0.09200
H377        H  0.05108767  0.96635785  0.89274712     0.13700
H378        H  0.02291227  0.55538299  0.95671856    -0.00500
H379        H  0.49306992  0.93324015  0.98725441     0.14000
H380        H  0.41342661  0.94280292  0.90975992     0.13800
O381        O  0.12461063  0.53209796  0.46524681    -0.81800
O382        O  0.42618345  0.93983442  0.53686500    -0.66500
O383        O  0.02244528  0.99722753  0.47190306    -1.13100
C384        C  0.04015145  0.61187503  0.54814234     1.05100
O385        O  0.39417231  0.98460520  0.53568590    -0.79700
O386        O  0.43756539  0.55743854  0.50682777    -0.67300
Ni387      Ni  0.07083126  0.97950151  0.45547653     1.34900
C388        C  0.45929665  0.56591269  0.47816368     0.83800
O389        O  0.45599465  0.91576384  0.47762417    -0.80200
O390        O  0.02143019  0.92573121  0.44368161    -0.90500
C391        C  0.39079939  0.94970803  0.54227287     0.83400
O392        O  0.08321468  0.96101844  0.49716105    -0.68700
O393        O  0.99911700  0.58877280  0.56090788    -0.88000
C394        C  0.05922143  0.95073851  0.52481759     0.84200
C395        C  0.47893802  0.90338315  0.45490722     1.05800
H396        H  0.01489535  0.51800609  0.54958858     0.37600
O397        O  0.99654013  0.51841542  0.52985059    -1.10600
O398        O  0.99782917  0.56074424  0.47083287    -0.67300
Ni399      Ni  0.04294723  0.54891202  0.49724816     1.26300
O400        O  0.01916975  0.95391265  0.53069226    -0.67500
O401        O  0.06161917  0.60035179  0.52369376    -0.79800
C402        C  0.12665734  0.56643964  0.45812663     0.83600
O403        O  0.09127658  0.57611910  0.46432534    -0.67000
Ni404      Ni  0.44876749  0.53615009  0.54736534     1.27400
Ni405      Ni  0.47529031  0.96693312  0.50424895     1.26100
H406        H  0.00443946  0.99745083  0.45165117     0.38200
C407        C  0.39144290  0.73222841  0.40094028     0.85600
C408        C  0.33676537  0.71344417  0.41031567    -0.54600
C409        C  0.31200747  0.67295899  0.40106480     0.08500
C410        C  0.34442075  0.65460212  0.38174754     0.19500
C411        C  0.40985062  0.70369544  0.41771271    -0.55400
C412        C  0.38668584  0.66331789  0.40676368     0.08600
C413        C  0.39283407  0.72242593  0.36207718    -0.54900
C414        C  0.36817793  0.68204490  0.35167567     0.09200
H415        H  0.31964754  0.73021917  0.42544511     0.13700
H416        H  0.32439283  0.62187780  0.37377039    -0.00500
H417        H  0.43666386  0.71343201  0.43819420     0.14000
H418        H  0.41213414  0.74592624  0.34459673     0.13800
C419        C  0.12556467  0.78401871  0.59837813     0.85600
C420        C  0.12828788  0.79210693  0.63745545    -0.54600
C421        C  0.15447242  0.83175413  0.64914603     0.08500
C422        C  0.17455559  0.86065896  0.61962057     0.19500
C423        C  0.10503350  0.81323192  0.58558001    -0.55400
C424        C  0.12952933  0.85341859  0.59750583     0.08600
C425        C  0.17851411  0.80320417  0.58543082    -0.54900
C426        C  0.20409986  0.84296277  0.59612504     0.09200
H427        H  0.10994810  0.76737465  0.65392427     0.13700
H428        H  0.19606504  0.89259568  0.62895366    -0.00500
H429        H  0.07676745  0.80445419  0.56621900     0.14000
H430        H  0.19377318  0.78724700  0.56751788     0.13800
O431        O  0.27880730  0.81284545  0.21102508    -0.81800
O432        O  0.18343580  0.90906009  0.13190626    -0.66500
O433        O  0.21394118  0.84781931  0.19650275    -1.13100
C434        C  0.12624314  0.73717362  0.11470719     1.05100
O435        O  0.10883003  0.86337401  0.13502515    -0.79700
O436        O  0.07348775  0.78927158  0.15923392    -0.67300
Ni437      Ni  0.27901639  0.86599467  0.21358881     1.34900
C438        C  0.08450995  0.77943320  0.18720471     0.83800
O439        O  0.22559200  0.92867074  0.19452073    -0.80200
O440        O  0.28745796  0.92178187  0.21989878    -0.90500
C441        C  0.13859682  0.89699326  0.12425816     0.83400
O442        O  0.30837854  0.87398208  0.16951980    -0.68700
O443        O  0.10831045  0.76033820  0.10361640    -0.88000
C444        C  0.30352224  0.89496229  0.14663703     0.84200
C445        C  0.26402808  0.94251578  0.21310836     1.05800
H446        H  0.19695528  0.83280023  0.11709894     0.37600
O447        O  0.17564399  0.83027008  0.13662275    -1.10600
O448        O  0.12739132  0.78340752  0.19348636    -0.67300
Ni449      Ni  0.18723162  0.79781238  0.16801991     1.26300
O450        O  0.26411606  0.89923559  0.14254919    -0.67500
O451        O  0.15815569  0.74825215  0.13876523    -0.79800
C452        C  0.24527607  0.77690007  0.21054368     0.83600
O453        O  0.20256576  0.76740709  0.19945143    -0.67000
Ni454      Ni  0.11065424  0.81254744  0.11960044     1.27400
Ni455      Ni  0.20077317  0.88010394  0.16482541     1.26100
H456        H  0.19328664  0.84582419  0.21634158     0.38200
C457        C  0.04410438  0.56420435  0.06563880     0.85600
C458        C  0.07409353  0.54149703  0.07764944    -0.54600
C459        C  0.05466751  0.00012178  0.06811078     0.08500
C460        C  0.50619166  0.98610472  0.04783520     0.19500
C461        C  0.03786964  0.55371066  0.02679318    -0.55400
C462        C  0.01833129  0.51302944  0.01706872     0.08600
C463        C  0.49396112  0.53977261  0.08150467    -0.54900
C464        C  0.47346081  0.99949161  0.07194632     0.09200
H465        H  0.10629529  0.55665208  0.09386000     0.13700
H466        H  0.48897362  0.95359260  0.03969067    -0.00500
H467        H  0.04887857  0.57734026  0.00882986     0.14000
H468        H  0.47893037  0.55160049  0.10288344     0.13800
C469        C  0.34453724  0.61465094  0.26621555     0.85600
C470        C  0.39555252  0.64306069  0.25284953    -0.54600
C471        C  0.41026607  0.68397566  0.26159979     0.08500
C472        C  0.37185843  0.69245281  0.28382483     0.19500
C473        C  0.35138706  0.62612443  0.30520501    -0.55400
C474        C  0.36327490  0.66612693  0.31477104     0.08600
C475        C  0.30989713  0.63230991  0.25404929    -0.54900
C476        C  0.32428249  0.67274829  0.26245998     0.09200
H477        H  0.41878114  0.63162634  0.23819200     0.13700
H478        H  0.38232904  0.72487450  0.29158092    -0.00500
H479        H  0.35431168  0.60630816  0.32345749     0.14000
H480        H  0.27755928  0.61449324  0.23845914     0.13800
C481        C  0.39267890  0.94128529  0.14379872    -0.02700
C482        C  0.34742667  0.91875965  0.12643441     0.06900
C483        C  0.34397388  0.92281264  0.09103456    -0.02800
C484        C  0.38512365  0.94933430  0.07328004    -0.02900
C485        C  0.43006495  0.97133493  0.09047227     0.07100
C486        C  0.43366067  0.96736069  0.12589342    -0.03000
Br487      Br  0.49557781  0.49601300  0.14998553    -0.01600
Br488      Br  0.39921576  0.43940806  0.19285466    -0.01700
Br489      Br  0.37909098  0.95748035  0.02591226    -0.01600
Br490      Br  0.28340010  0.89148066  0.06644784    -0.01600
C491        C  0.13569080  0.67772511  0.08277640    -0.02700
C492        C  0.10597741  0.69427830  0.10020504     0.06900
C493        C  0.05512225  0.67047597  0.10178712    -0.02800
C494        C  0.03436215  0.63049733  0.08666016    -0.02900
C495        C  0.06493409  0.61088191  0.07483082     0.07100
C496        C  0.11520874  0.63660077  0.06947251    -0.03000
Br497      Br  0.15473187  0.61842207  0.03917673    -0.01600
Br498      Br  0.20392512  0.71221975  0.07545503    -0.01700
Br499      Br  0.46552914  0.60957872  0.07459355    -0.01600
Br500      Br  0.01293665  0.69213562  0.12553146    -0.01600
C501        C  0.14905677  0.96213070  0.09599715    -0.02700
C502        C  0.11923624  0.92199699  0.10527639     0.06900
C503        C  0.06888299  0.90530114  0.09628166    -0.02800
C504        C  0.04704673  0.93061729  0.08683453    -0.02900
C505        C  0.07648772  0.97156482  0.07858331     0.07100
C506        C  0.12810462  0.98494945  0.08007981    -0.03000
Br507      Br  0.17122351  0.53161313  0.05626119    -0.01600
Br508      Br  0.21898464  0.98697351  0.10357065    -0.01700
Br509      Br  0.47644917  0.90638681  0.08893313    -0.01600
Br510      Br  0.02865038  0.84672886  0.09339903    -0.01600
C511        C  0.27614084  0.71504160  0.27073842    -0.02700
C512        C  0.29932210  0.69623830  0.24846989     0.06900
C513        C  0.30073526  0.70172310  0.21282206    -0.02800
C514        C  0.28030059  0.72640862  0.20007897    -0.02900
C515        C  0.25799364  0.74537371  0.22267489     0.07100
C516        C  0.25487165  0.73900131  0.25782361    -0.03000
Br517      Br  0.22291824  0.76461668  0.28830975    -0.01600
Br518      Br  0.27484641  0.70979936  0.31910391    -0.01700
Br519      Br  0.28542148  0.73659709  0.15192094    -0.01600
Br520      Br  0.33609305  0.68048371  0.18156748    -0.01600
C521        C  0.27684162  0.49487932  0.26129343    -0.02700
C522        C  0.28395707  0.48531317  0.22684923     0.06900
C523        C  0.31053934  0.51637110  0.20538071    -0.02800
C524        C  0.32978788  0.55748631  0.21800346    -0.02900
C525        C  0.32508641  0.56860138  0.25357573     0.07100
C526        C  0.29555843  0.53590333  0.27459035    -0.03000
Br527      Br  0.27169006  0.54315079  0.31988178    -0.01600
Br528      Br  0.23875466  0.95053960  0.28969793    -0.01700
Br529      Br  0.35812912  0.59660407  0.18365204    -0.01600
Br530      Br  0.32106709  0.50191105  0.15810021    -0.01600
C531        C  0.04255122  0.72828990  0.23164617    -0.02700
C532        C  0.04496743  0.76107337  0.21291978     0.06900
C533        C  0.00741439  0.77462334  0.21746592    -0.02800
C534        C  0.46422067  0.75161969  0.23542301    -0.02900
C535        C  0.45907396  0.71544715  0.25036381     0.07100
C536        C  0.50082618  0.70700491  0.25144519    -0.03000
Br537      Br  0.50231361  0.66754107  0.28167196    -0.01600
Br538      Br  0.09386621  0.70938585  0.22880118    -0.01700
Br539      Br  0.41373698  0.77116758  0.23807470    -0.01600
Br540      Br  0.01576485  0.82576084  0.19995427    -0.01600
C541        C  0.22419777  0.62041907  0.39380164    -0.02700
C542        C  0.26253476  0.64809310  0.41539751     0.06900
C543        C  0.25457918  0.64959535  0.45151327    -0.02800
C544        C  0.20941612  0.62354669  0.46528247    -0.02900
C545        C  0.17204762  0.59601303  0.44353090     0.07100
C546        C  0.17913871  0.59469316  0.40787771    -0.03000
Br547      Br  0.12688589  0.55655477  0.37851169    -0.01600
Br548      Br  0.23207084  0.61645792  0.34494412    -0.01700
Br549      Br  0.19929951  0.62359260  0.51427793    -0.01600
Br550      Br  0.30659426  0.68290588  0.48337903    -0.01600
C551        C  0.41265598  0.84482632  0.42227312    -0.02700
C552        C  0.45643833  0.86034932  0.44118980     0.06900
C553        C  0.48222053  0.83611106  0.44373233    -0.02800
C554        C  0.46499871  0.79696146  0.42689823    -0.02900
C555        C  0.41749614  0.77859035  0.41165773     0.07100
C556        C  0.39389888  0.80476153  0.40686725    -0.03000
Br557      Br  0.33903319  0.78901039  0.37610979    -0.01600
Br558      Br  0.37907595  0.87916751  0.41668506    -0.01700
Br559      Br  0.51363463  0.77609346  0.41714960    -0.01600
Br560      Br  0.04103605  0.85606327  0.47151840    -0.01600
C561        C  0.45255026  0.63955885  0.41574408    -0.02700
C562        C  0.40263353  0.63217196  0.41846593     0.06900
C563        C  0.37019793  0.59694293  0.43443375    -0.02800
C564        C  0.38856956  0.57295361  0.45102798    -0.02900
C565        C  0.43963786  0.58471410  0.45324971     0.07100
C566        C  0.47151837  0.61754126  0.43437168    -0.03000
Br567      Br  0.54184498  0.63606618  0.43616783    -0.01600
Br568      Br  0.49465804  0.67813725  0.38444894    -0.01700
Br569      Br  0.34305283  0.52354433  0.47060658    -0.01600
Br570      Br  0.30063021  0.58067576  0.43510406    -0.01600
C571        C  0.29458292  0.88282782  0.60231647    -0.02700
C572        C  0.25263935  0.86781641  0.58139835     0.06900
C573        C  0.25694784  0.87679526  0.54646519    -0.02800
C574        C  0.30267914  0.90276736  0.53339920    -0.02900
C575        C  0.34402919  0.91977716  0.55509136     0.07100
C576        C  0.34013765  0.90933339  0.58943985    -0.03000
Br577      Br  0.39670215  0.93280912  0.61923711    -0.01600
Br578      Br  0.28959627  0.86496047  0.64790970    -0.01700
Br579      Br  0.30892275  0.91487622  0.48571116    -0.01600
Br580      Br  0.20002681  0.85563754  0.51680829    -0.01600
C581        C  0.12485887  0.71254936  0.59385764    -0.02700
C582        C  0.10023994  0.73776871  0.58803598     0.06900
C583        C  0.05209971  0.71817288  0.57413516    -0.02800
C584        C  0.03497739  0.67837382  0.55868321    -0.02900
C585        C  0.06185707  0.65502451  0.56153441     0.07100
C586        C  0.10565524  0.67157413  0.58053013    -0.03000
Br587      Br  0.13715580  0.63696797  0.59050889    -0.01600
Br588      Br  0.18251576  0.73176139  0.62300226    -0.01700
Br589      Br  0.47349378  0.65560599  0.53379585    -0.01600
Br590      Br  0.00294367  0.73818598  0.58481049    -0.01600
C591        C  0.06341278  0.87636353  0.58708675    -0.02700
C592        C  0.11396114  0.88552856  0.58717851     0.06900
C593        C  0.14688457  0.92276103  0.57385395    -0.02800
C594        C  0.12863738  0.94593262  0.55587269    -0.02900
C595        C  0.07774691  0.93199090  0.55037812     0.07100
C596        C  0.04506358  0.89769733  0.56725602    -0.03000
Br597      Br  0.97483550  0.87604420  0.56082151    -0.01600
Br598      Br  0.01906026  0.83644107  0.61638953    -0.01700
Br599      Br  0.17377593  0.99732056  0.53890704    -0.01600
Br600      Br  0.21682673  0.94423418  0.57966745    -0.01600
C601        C  0.39967639  0.83080215  0.91336686    -0.02700
C602        C  0.42874125  0.81777182  0.89117843     0.06900
C603        C  0.47812531  0.84447869  0.88628151    -0.02800
C604        C  0.49858427  0.88311665  0.90392823    -0.02900
C605        C  0.46785518  0.89920060  0.92131035     0.07100
C606        C  0.41894418  0.87107875  0.92842348    -0.03000
Br607      Br  0.37851267  0.88529637  0.96120843    -0.01600
Br608      Br  0.33373584  0.79296032  0.92421014    -0.01700
Br609      Br  0.06843787  0.90610431  0.91221593    -0.01600
Br610      Br  0.01791856  0.82974082  0.85351048    -0.01600
C611        C  0.13814281  0.54572271  0.92237664    -0.02700
C612        C  0.09411812  0.54730027  0.91310650     0.06900
C613        C  0.09615247  0.57840821  0.89263454    -0.02800
C614        C  0.14053793  0.60321995  0.87703665    -0.02900
C615        C  0.18329835  0.59696876  0.88170688     0.07100
C616        C  0.18280387  0.57081703  0.90726178    -0.03000
Br617      Br  0.24171786  0.56742698  0.92195398    -0.01600
Br618      Br  0.13712455  0.00911763  0.95631347    -0.01700
Br619      Br  0.14256373  0.64677981  0.85024750    -0.01600
Br620      Br  0.03865586  0.58705835  0.88480555    -0.01600
C621        C  0.40556046  0.57818075  0.93370844    -0.02700
C622        C  0.39433444  0.57654498  0.89888724     0.06900
C623        C  0.39983504  0.54751322  0.87539890    -0.02800
C624        C  0.42036046  0.52200210  0.88627449    -0.02900
C625        C  0.43336117  0.52436711  0.92135073     0.07100
C626        C  0.42413176  0.55166667  0.94506310    -0.03000
Br627      Br  0.93629757  0.55340986  0.99323981    -0.01600
Br628      Br  0.39632892  0.61768107  0.96561359    -0.01700
Br629      Br  0.43726354  0.98919699  0.85144991    -0.01600
Br630      Br  0.38300046  0.54515400  0.82761521    -0.01600
C631        C  0.22035422  0.73105041  0.75285729    -0.02700
C632        C  0.26798521  0.74880281  0.76691689     0.06900
C633        C  0.29723826  0.79045366  0.76220439    -0.02800
C634        C  0.27662042  0.81419495  0.74745570    -0.02900
C635        C  0.22491205  0.79854197  0.74202355     0.07100
C636        C  0.19707275  0.75562079  0.74452921    -0.03000
Br637      Br  0.12643983  0.72695148  0.74211551    -0.01600
Br638      Br  0.18740473  0.67255308  0.74208317    -0.01700
Br639      Br  0.32169095  0.86698217  0.73293325    -0.01600
Br640      Br  0.36600034  0.81603073  0.77481354    -0.01600
C641        C  0.48704464  0.75145150  0.75801891    -0.02700
C642        C  0.49052492  0.74046139  0.79162097     0.06900
C643        C  0.03776553  0.75439798  0.80686922    -0.02800
C644        C  0.07950773  0.78144952  0.79001914    -0.02900
C645        C  0.07531882  0.79416789  0.75744568     0.07100
C646        C  0.02923662  0.77851370  0.74130003    -0.03000
Br647      Br  0.02388437  0.79607539  0.69691239    -0.01600
Br648      Br  0.42509464  0.72841973  0.73392577    -0.01700
Br649      Br  0.14284552  0.80118617  0.81214233    -0.01600
Br650      Br  0.04720554  0.73996389  0.85220166    -0.01600
C651        C  0.21959834  0.98843105  0.79887835    -0.02700
C652        C  0.25008565  0.51941662  0.77819070     0.06900
C653        C  0.26710285  0.50865563  0.74685895    -0.02800
C654        C  0.25039698  0.96726347  0.73483761    -0.02900
C655        C  0.21446707  0.93590467  0.75367217     0.07100
C656        C  0.20541987  0.94718369  0.78797125    -0.03000
Br657      Br  0.18434697  0.90858441  0.82316287    -0.01600
Br658      Br  0.19530821  0.00211083  0.84192979    -0.01700
Br659      Br  0.28446364  0.95503268  0.69602300    -0.01600
Br660      Br  0.31577942  0.55107493  0.72152358    -0.01600
O661        O  0.91869457  0.14345071  0.88360031    -0.81800
O662        O  0.82855810  0.23552276  0.79667971    -0.66500
O663        O  0.85714069  0.18011661  0.86647592    -1.13100
C664        C  0.76719416  0.06284739  0.79069460     1.05100
O665        O  0.75279089  0.19037603  0.79813831    -0.79700
O666        O  0.71561640  0.11789005  0.82657916    -0.67300
Ni667      Ni  0.92296637  0.19770256  0.88117525     1.34900
C668        C  0.72499053  0.11322532  0.85703512     0.83800
O669        O  0.86991974  0.25973406  0.85958032    -0.80200
O670        O  0.93453528  0.25467430  0.88252949    -0.90500
C671        C  0.78441896  0.22352031  0.78749365     0.83400
O672        O  0.94737966  0.19747139  0.83570832    -0.68700
O673        O  0.75288016  0.08544970  0.77479800    -0.88000
C674        C  0.94565384  0.21950771  0.81270797     0.84200
C675        C  0.90974223  0.27484885  0.87678246     1.05800
H676        H  0.84121069  0.15776843  0.78820287     0.37600
O677        O  0.81893796  0.15749159  0.80662114    -1.10600
O678        O  0.76776244  0.11973245  0.86634459    -0.67300
Ni679      Ni  0.82718762  0.12782318  0.84199046     1.26300
O680        O  0.90836707  0.22705902  0.80945687    -0.67500
O681        O  0.79507949  0.07549467  0.81708529    -0.79800
C682        C  0.88333931  0.10867684  0.88623000     0.83600
O683        O  0.84013409  0.10050879  0.87704460    -0.67000
Ni684      Ni  0.75502066  0.13862775  0.78708458     1.27400
Ni685      Ni  0.84482087  0.20944338  0.83198508     1.26100
H686        H  0.83808425  0.18116968  0.88657806     0.38200
C687        C  0.68994718  0.39084538  0.73898474     0.85600
C688        C  0.71964273  0.36706585  0.74760700    -0.54600
C689        C  0.70152932  0.32715059  0.73470584     0.08500
C690        C  0.65287848  0.31476471  0.71517671     0.19500
C691        C  0.68186459  0.38444019  0.69964390    -0.55400
C692        C  0.66364857  0.34480218  0.68679874     0.08600
C693        C  0.63812204  0.36517094  0.75246947    -0.54900
C694        C  0.61933526  0.32505514  0.74114770     0.09200
H695        H  0.75041065  0.38055576  0.76518967     0.13700
H696        H  0.63699869  0.28342420  0.70444522    -0.00500
H697        H  0.68727504  0.40917837  0.68373696     0.14000
H698        H  0.61813632  0.37703541  0.77019150     0.13800
C699        C  0.98549021  0.44532827  0.93144724     0.85600
C700        C  0.53197927  0.47506056  0.91338978    -0.54600
C701        C  0.54662056  0.01512856  0.92406845     0.08500
C702        C  0.51165895  0.02255360  0.94996837     0.19500
C703        C  0.99593033  0.45620477  0.97004714    -0.55400
C704        C  0.50893529  0.99645437  0.98025997     0.08600
C705        C  0.94750029  0.46138665  0.92323023    -0.54900
C706        C  0.96104902  0.00163994  0.93236221     0.09200
H707        H  0.55108572  0.46635615  0.89274856     0.13700
H708        H  0.52291167  0.05538366  0.95671827    -0.00500
H709        H  0.99307196  0.43324023  0.98725555     0.14000
H710        H  0.91342778  0.44280149  0.90976085     0.13800
O711        O  0.62461043  0.03209757  0.46524600    -0.81800
O712        O  0.92618559  0.43983513  0.53686683    -0.66500
O713        O  0.52244606  0.49722772  0.47190244    -1.13100
C714        C  0.54015093  0.11187411  0.54814101     1.05100
O715        O  0.89417381  0.48460544  0.53568777    -0.79700
O716        O  0.93756511  0.05743838  0.50682828    -0.67300
Ni717      Ni  0.57083259  0.47950215  0.45547622     1.34900
C718        C  0.95929636  0.06591249  0.47816421     0.83800
O719        O  0.95599509  0.41576478  0.47762534    -0.80200
O720        O  0.52143233  0.42573143  0.44368134    -0.90500
C721        C  0.89080136  0.44970840  0.54227471     0.83400
O722        O  0.58321621  0.46101956  0.49716082    -0.68700
O723        O  0.49911646  0.08877203  0.56090667    -0.88000
C724        C  0.55922258  0.45073912  0.52481711     0.84200
C725        C  0.97893747  0.40338438  0.45490742     1.05800
H726        H  0.51489395  0.01800531  0.54958717     0.37600
O727        O  0.49653879  0.01841464  0.52984901    -1.10600
O728        O  0.49782848  0.06074331  0.47083122    -0.67300
Ni729      Ni  0.54294633  0.04891114  0.49724678     1.26300
O730        O  0.51917047  0.45391268  0.53069153    -0.67500
O731        O  0.56161825  0.10035083  0.52369225    -0.79800
C732        C  0.62665698  0.06643920  0.45812590     0.83600
O733        O  0.59127590  0.07611832  0.46432418    -0.67000
Ni734      Ni  0.94876774  0.03615066  0.54736605     1.27400
Ni735      Ni  0.97529143  0.46693393  0.50425042     1.26100
H736        H  0.50444036  0.49745100  0.45165042     0.38200
C737        C  0.89144237  0.23222910  0.40094190     0.85600
C738        C  0.83676457  0.21344441  0.41031656    -0.54600
C739        C  0.81200732  0.17295924  0.40106529     0.08500
C740        C  0.84442144  0.15460284  0.38174875     0.19500
C741        C  0.90984993  0.20369633  0.41771480    -0.55400
C742        C  0.88668590  0.16331885  0.40676549     0.08600
C743        C  0.89283468  0.22242681  0.36207886    -0.54900
C744        C  0.86817904  0.18204578  0.35167716     0.09200
H745        H  0.81964618  0.23021890  0.42544611     0.13700
H746        H  0.82439400  0.12187851  0.37377149    -0.00500
H747        H  0.93666239  0.21343292  0.43819680     0.14000
H748        H  0.91213494  0.24592732  0.34459862     0.13800
C749        C  0.62556539  0.28401820  0.59837580     0.85600
C750        C  0.62828788  0.29210575  0.63745324    -0.54600
C751        C  0.65447253  0.33175270  0.64914433     0.08500
C752        C  0.67455612  0.36065811  0.61961931     0.19500
C753        C  0.60503481  0.31323181  0.58557776    -0.55400
C754        C  0.62953030  0.35341822  0.59750427     0.08600
C755        C  0.67851511  0.30320380  0.58542903    -0.54900
C756        C  0.70410070  0.34296228  0.59612380     0.09200
H757        H  0.60994792  0.26737325  0.65392183     0.13700
H758        H  0.69606554  0.39259469  0.62895280    -0.00500
H759        H  0.57676981  0.30445478  0.56621607     0.14000
H760        H  0.69377450  0.28724687  0.56751610     0.13800
O761        O  0.77880712  0.31284521  0.21102265    -0.81800
O762        O  0.68343510  0.40905956  0.13190514    -0.66500
O763        O  0.71394031  0.34781910  0.19650213    -1.13100
C764        C  0.62624249  0.23717254  0.11470681     1.05100
O765        O  0.60882930  0.36337291  0.13502298    -0.79700
O766        O  0.57348701  0.28927021  0.15923189    -0.67300
Ni767      Ni  0.77901459  0.36599413  0.21358967     1.34900
C768        C  0.58450879  0.27943278  0.18720331     0.83800
O769        O  0.72559162  0.42867086  0.19451979    -0.80200
O770        O  0.78745382  0.42178062  0.21990228    -0.90500
C771        C  0.63859627  0.39699221  0.12425610     0.83400
O772        O  0.80838104  0.37398670  0.16952219    -0.68700
O773        O  0.60831137  0.26033757  0.10361483    -0.88000
C774        C  0.80352330  0.39496519  0.14663849     0.84200
C775        C  0.76402561  0.44251520  0.21310970     1.05800
H776        H  0.69695554  0.33279952  0.11709855     0.37600
O777        O  0.67564368  0.33026945  0.13662211    -1.10600
O778        O  0.62739021  0.28340793  0.19348590    -0.67300
Ni779      Ni  0.68723059  0.29781179  0.16801983     1.26300
O780        O  0.76411559  0.39923554  0.14254896    -0.67500
O781        O  0.65815394  0.24825093  0.13876566    -0.79800
C782        C  0.74527570  0.27689995  0.21054302     0.83600
O783        O  0.70256459  0.26740699  0.19945222    -0.67000
Ni784      Ni  0.61065438  0.31254655  0.11959875     1.27400
Ni785      Ni  0.70077255  0.38010365  0.16482465     1.26100
H786        H  0.69328537  0.34582417  0.21634074     0.38200
C787        C  0.54410310  0.06420252  0.06563909     0.85600
C788        C  0.57409251  0.04149503  0.07764901    -0.54600
C789        C  0.55466625  0.50012082  0.06811029     0.08500
C790        C  0.00619221  0.48610614  0.04783635     0.19500
C791        C  0.53786841  0.05370983  0.02679334    -0.55400
C792        C  0.51833035  0.01302888  0.01706820     0.08600
C793        C  0.99396168  0.03977306  0.08150399    -0.54900
C794        C  0.97346173  0.49949407  0.07194712     0.09200
H795        H  0.60629410  0.05664982  0.09385976     0.13700
H796        H  0.98897405  0.45359372  0.03969243    -0.00500
H797        H  0.54887698  0.07733984  0.00883042     0.14000
H798        H  0.97893087  0.05160110  0.10288260     0.13800
C799        C  0.84453713  0.11465189  0.26621704     0.85600
C800        C  0.89555262  0.14306099  0.25285082    -0.54600
C801        C  0.91026751  0.18397615  0.26160151     0.08500
C802        C  0.87186037  0.19245400  0.28382658     0.19500
C803        C  0.85138727  0.12612535  0.30520648    -0.55400
C804        C  0.86327598  0.16612791  0.31477257     0.08600
C805        C  0.80989808  0.13231203  0.25405075    -0.54900
C806        C  0.82428463  0.17275056  0.26246165     0.09200
H807        H  0.91877978  0.13162598  0.23819221     0.13700
H808        H  0.88233136  0.22487550  0.29158320    -0.00500
H809        H  0.85431306  0.10630947  0.32345880     0.14000
H810        H  0.77756043  0.11449614  0.23846019     0.13800
C811        C  0.89267898  0.44129157  0.14380094    -0.02700
C812        C  0.84742754  0.41876376  0.12643623     0.06900
C813        C  0.84397525  0.42281501  0.09103599    -0.02800
C814        C  0.88512497  0.44933631  0.07328128    -0.02900
C815        C  0.93006570  0.47133855  0.09047370     0.07100
C816        C  0.93366078  0.46736662  0.12589544    -0.03000
Br817      Br  0.99557905  0.99601647  0.14998642    -0.01600
Br818      Br  0.89921798  0.93941017  0.19285592    -0.01700
Br819      Br  0.87909319  0.45747906  0.02591262    -0.01600
Br820      Br  0.78340229  0.39148112  0.06644892    -0.01600
C821        C  0.63568992  0.17772305  0.08277771    -0.02700
C822        C  0.60597629  0.19427699  0.10020487     0.06900
C823        C  0.55512075  0.17047525  0.10178550    -0.02800
C824        C  0.53436072  0.13049584  0.08665984    -0.02900
C825        C  0.56493281  0.11088005  0.07483160     0.07100
C826        C  0.61520768  0.13659875  0.06947376    -0.03000
Br827      Br  0.65473094  0.11842029  0.03917791    -0.01600
Br828      Br  0.70392504  0.21221683  0.07545808    -0.01700
Br829      Br  0.96552911  0.10957908  0.07459315    -0.01600
Br830      Br  0.51293446  0.19213721  0.12552569    -0.01600
C831        C  0.64905611  0.46212907  0.09599396    -0.02700
C832        C  0.61923584  0.42199551  0.10527349     0.06900
C833        C  0.56888286  0.40529928  0.09627812    -0.02800
C834        C  0.54704592  0.43061530  0.08683174    -0.02900
C835        C  0.57648654  0.47156333  0.07858153     0.07100
C836        C  0.62810346  0.48494790  0.08007729    -0.03000
Br837      Br  0.67122342  0.03161292  0.05626066    -0.01600
Br838      Br  0.71898444  0.48697081  0.10356481    -0.01700
Br839      Br  0.97644851  0.40639212  0.08893937    -0.01600
Br840      Br  0.52865264  0.34672671  0.09339225    -0.01600
C841        C  0.77613874  0.21504068  0.27073829    -0.02700
C842        C  0.79932613  0.19624165  0.24847092     0.06900
C843        C  0.80074584  0.20173056  0.21282363    -0.02800
C844        C  0.78030852  0.22641377  0.20007960    -0.02900
C845        C  0.75799422  0.24537390  0.22267423     0.07100
C846        C  0.75486737  0.23899840  0.25782252    -0.03000
Br847      Br  0.72290452  0.26460700  0.28830702    -0.01600
Br848      Br  0.77484182  0.20979769  0.31910385    -0.01700
Br849      Br  0.78543380  0.23660463  0.15192200    -0.01600
Br850      Br  0.83611763  0.18050156  0.18157220    -0.01600
C851        C  0.77684600  0.99487956  0.26129571    -0.02700
C852        C  0.78395822  0.98531376  0.22685078     0.06900
C853        C  0.81053695  0.01637213  0.20538170    -0.02800
C854        C  0.82978454  0.05748731  0.21800454    -0.02900
C855        C  0.82508563  0.06860216  0.25357721     0.07100
C856        C  0.79556149  0.03590359  0.27459264    -0.03000
Br857      Br  0.77169521  0.04314977  0.31988515    -0.01600
Br858      Br  0.73875835  0.45053915  0.28970075    -0.01700
Br859      Br  0.85812125  0.09660563  0.18365312    -0.01600
Br860      Br  0.82106228  0.00191275  0.15810054    -0.01600
C861        C  0.54255060  0.22829112  0.23164611    -0.02700
C862        C  0.54496585  0.26107319  0.21291816     0.06900
C863        C  0.50741167  0.27462206  0.21746273    -0.02800
C864        C  0.96422447  0.25162169  0.23542721    -0.02900
C865        C  0.95907586  0.21544713  0.25036554     0.07100
C866        C  0.00082670  0.20700262  0.25144446    -0.03000
Br867      Br  0.00231396  0.16753712  0.28166950    -0.01600
Br868      Br  0.59386586  0.20938739  0.22880219    -0.01700
Br869      Br  0.91374468  0.27117406  0.23808333    -0.01600
Br870      Br  0.51576041  0.32575812  0.19994908    -0.01600
C871        C  0.72419798  0.12041883  0.39380148    -0.02700
C872        C  0.76253469  0.14809281  0.41539759     0.06900
C873        C  0.75457932  0.14959417  0.45151335    -0.02800
C874        C  0.70941606  0.12354569  0.46528234    -0.02900
C875        C  0.67204735  0.09601274  0.44353051     0.07100
C876        C  0.67913879  0.09469292  0.40787734    -0.03000
Br877      Br  0.62688666  0.05655384  0.37851117    -0.01600
Br878      Br  0.73207215  0.11645663  0.34494408    -0.01700
Br879      Br  0.69929990  0.12359038  0.51427783    -0.01600
Br880      Br  0.80659576  0.18290201  0.48337915    -0.01600
C881        C  0.91265506  0.34482717  0.42227366    -0.02700
C882        C  0.95643763  0.36035055  0.44119014     0.06900
C883        C  0.98221992  0.33611247  0.44373303    -0.02800
C884        C  0.96499785  0.29696248  0.42689974    -0.02900
C885        C  0.91749518  0.27859106  0.41165932     0.07100
C886        C  0.89389783  0.30476207  0.40686831    -0.03000
Br887      Br  0.83903187  0.28901018  0.37611080    -0.01600
Br888      Br  0.87907500  0.37916821  0.41668519    -0.01700
Br889      Br  0.01363360  0.27609398  0.41715270    -0.01600
Br890      Br  0.54103665  0.35606177  0.47151800    -0.01600
C891        C  0.95255051  0.13955989  0.41574581    -0.02700
C892        C  0.90263378  0.13217309  0.41846779     0.06900
C893        C  0.87019800  0.09694375  0.43443513    -0.02800
C894        C  0.88856937  0.07295414  0.45102911    -0.02900
C895        C  0.93963759  0.08471398  0.45325030     0.07100
C896        C  0.97151820  0.11754098  0.43437215    -0.03000
Br897      Br  0.04184459  0.13606316  0.43616567    -0.01600
Br898      Br  0.99465913  0.17814025  0.38445235    -0.01700
Br899      Br  0.84305222  0.02354529  0.47060805    -0.01600
Br900      Br  0.80063025  0.08067635  0.43510497    -0.01600
C901        C  0.79458370  0.38282623  0.60231638    -0.02700
C902        C  0.75264055  0.36781618  0.58139790     0.06900
C903        C  0.75694980  0.37679647  0.54646510    -0.02800
C904        C  0.80268139  0.40276891  0.53339992    -0.02900
C905        C  0.84403113  0.41977700  0.55509237     0.07100
C906        C  0.84013911  0.40933119  0.58944028    -0.03000
Br907      Br  0.89670408  0.43280274  0.61923731    -0.01600
Br908      Br  0.78959525  0.36495855  0.64790962    -0.01700
Br909      Br  0.80892602  0.41488033  0.48571246    -0.01600
Br910      Br  0.70002947  0.35564029  0.51680762    -0.01600
C911        C  0.62485887  0.21254867  0.59385565    -0.02700
C912        C  0.60024054  0.23776830  0.58803324     0.06900
C913        C  0.55210062  0.21817269  0.57413168    -0.02800
C914        C  0.53497792  0.17837327  0.55868050    -0.02900
C915        C  0.56185689  0.15502364  0.56153277     0.07100
C916        C  0.60565491  0.17157326  0.58052863    -0.03000
Br917      Br  0.63715486  0.13696688  0.59050815    -0.01600
Br918      Br  0.68251527  0.23176054  0.62300079    -0.01700
Br919      Br  0.97349636  0.15560841  0.53379559    -0.01600
Br920      Br  0.50294485  0.23818673  0.58480442    -0.01600
C921        C  0.56341360  0.37636295  0.58708511    -0.02700
C922        C  0.61396207  0.38552830  0.58717728     0.06900
C923        C  0.64688555  0.42276115  0.57385334    -0.02800
C924        C  0.62863850  0.44593290  0.55587216    -0.02900
C925        C  0.57774802  0.43199127  0.55037749     0.07100
C926        C  0.54506457  0.39769723  0.56725480    -0.03000
Br927      Br  0.47483654  0.37604407  0.56081987    -0.01600
Br928      Br  0.51906052  0.33643908  0.61638667    -0.01700
Br929      Br  0.67377740  0.49732076  0.53890652    -0.01600
Br930      Br  0.71682762  0.44423459  0.57966773    -0.01600
C931        C  0.89967898  0.33080054  0.91336985    -0.02700
C932        C  0.92874043  0.31777156  0.89117689     0.06900
C933        C  0.97812256  0.34447972  0.88627538    -0.02800
C934        C  0.99858391  0.38311677  0.90392346    -0.02900
C935        C  0.96785717  0.39919991  0.92131033     0.07100
C936        C  0.91894748  0.37107741  0.92842611    -0.03000
Br937      Br  0.87851824  0.38529515  0.96121274    -0.01600
Br938      Br  0.83374250  0.29295633  0.92421957    -0.01700
Br939      Br  0.56843686  0.40610620  0.91222952    -0.01600
Br940      Br  0.51792953  0.32973748  0.85352764    -0.01600
C941        C  0.63814143  0.04572530  0.92237773    -0.02700
C942        C  0.59411641  0.04730076  0.91310558     0.06900
C943        C  0.59615008  0.07840654  0.89263127    -0.02800
C944        C  0.64053556  0.10321801  0.87703329    -0.02900
C945        C  0.68329673  0.09696848  0.88170562     0.07100
C946        C  0.68280246  0.07081887  0.90726237    -0.03000
Br947      Br  0.74171660  0.06743042  0.92195630    -0.01600
Br948      Br  0.63712345  0.50912456  0.95631982    -0.01700
Br949      Br  0.64255986  0.14677496  0.85024088    -0.01600
Br950      Br  0.53865259  0.08705425  0.88479955    -0.01600
C951        C  0.90556073  0.07817973  0.93370946    -0.02700
C952        C  0.89433561  0.07654520  0.89888819     0.06900
C953        C  0.89983786  0.04751468  0.87539927    -0.02800
C954        C  0.92036191  0.02200242  0.88627463    -0.02900
C955        C  0.93336170  0.02436617  0.92135093     0.07100
C956        C  0.92413196  0.05166528  0.94506365    -0.03000
Br957      Br  0.43629816  0.05341204  0.99323916    -0.01600
Br958      Br  0.89632887  0.11767925  0.96561535    -0.01700
Br959      Br  0.93726490  0.48919651  0.85145047    -0.01600
Br960      Br  0.88300839  0.04515947  0.82761498    -0.01600
C961        C  0.72035549  0.23104773  0.75285429    -0.02700
C962        C  0.76798611  0.24880010  0.76691429     0.06900
C963        C  0.79723954  0.29045081  0.76220163    -0.02800
C964        C  0.77662175  0.31419239  0.74745339    -0.02900
C965        C  0.72491333  0.29853942  0.74202117     0.07100
C966        C  0.69707402  0.25561817  0.74452650    -0.03000
Br967      Br  0.62644111  0.22694884  0.74211359    -0.01600
Br968      Br  0.68740683  0.17255054  0.74207930    -0.01700
Br969      Br  0.82169244  0.36698025  0.73293228    -0.01600
Br970      Br  0.86600223  0.31602693  0.77480937    -0.01600
C971        C  0.98704485  0.25145405  0.75801937    -0.02700
C972        C  0.99052456  0.24046269  0.79162113     0.06900
C973        C  0.53776832  0.25439735  0.80686949    -0.02800
C974        C  0.57951027  0.28144735  0.79001821    -0.02900
C975        C  0.57532047  0.29416490  0.75744456     0.07100
C976        C  0.52923782  0.27851055  0.74129953    -0.03000
Br977      Br  0.52388385  0.29607217  0.69691215    -0.01600
Br978      Br  0.92509475  0.22842516  0.73392636    -0.01700
Br979      Br  0.64284894  0.30118299  0.81214003    -0.01600
Br980      Br  0.54720966  0.23996452  0.85220219    -0.01600
C981        C  0.71960015  0.48842782  0.79887847    -0.02700
C982        C  0.75008526  0.01941441  0.77819142     0.06900
C983        C  0.76709975  0.00865381  0.74685835    -0.02800
C984        C  0.75039590  0.46726114  0.73483626    -0.02900
C985        C  0.71446749  0.43590189  0.75367122     0.07100
C986        C  0.70542144  0.44718050  0.78797074    -0.03000
Br987      Br  0.68434914  0.40858050  0.82316176    -0.01600
Br988      Br  0.69531190  0.50210702  0.84193103    -0.01700
Br989      Br  0.78446274  0.45503117  0.69602132    -0.01600
Br990      Br  0.81577260  0.05107355  0.72152120    -0.01600
O991        O  0.91869488  0.64345056  0.88359973    -0.81800
O992        O  0.82855696  0.73552283  0.79668012    -0.66500
O993        O  0.85714062  0.68011633  0.86647565    -1.13100
C994        C  0.76719422  0.56284721  0.79069419     1.05100
O995        O  0.75278982  0.69037566  0.79813813    -0.79700
O996        O  0.71561641  0.61788975  0.82657923    -0.67300
Ni997      Ni  0.92296658  0.69770236  0.88117440     1.34900
C998        C  0.72499077  0.61322482  0.85703508     0.83800
O999        O  0.86991920  0.75973379  0.85958066    -0.80200
O1000       O  0.93453567  0.75467420  0.88252842    -0.90500
C1001       C  0.78441781  0.72352030  0.78749395     0.83400
O1002       O  0.94737814  0.69747022  0.83570708    -0.68700
O1003       O  0.75287979  0.58544941  0.77479781    -0.88000
C1004       C  0.94565266  0.71950715  0.81270717     0.84200
C1005       C  0.90974227  0.77484870  0.87678216     1.05800
H1006       H  0.84121027  0.65776871  0.78820250     0.37600
O1007       O  0.81893751  0.65749161  0.80662092    -1.10600
O1008       O  0.76776270  0.61973182  0.86634434    -0.67300
Ni1009     Ni  0.82718776  0.62782304  0.84198993     1.26300
O1010       O  0.90836632  0.72705919  0.80945661    -0.67500
O1011       O  0.79507992  0.57549462  0.81708465    -0.79800
C1012       C  0.88333974  0.60867657  0.88622915     0.83600
O1013       O  0.84013454  0.60050846  0.87704372    -0.67000
Ni1014     Ni  0.75502009  0.63862747  0.78708445     1.27400
Ni1015     Ni  0.84482026  0.70944326  0.83198513     1.26100
H1016       H  0.83808431  0.68116918  0.88657802     0.38200
C1017       C  0.68994639  0.89084581  0.73898491     0.85600
C1018       C  0.71964169  0.86706615  0.74760730    -0.54600
C1019       C  0.70152827  0.82715093  0.73470607     0.08500
C1020       C  0.65287758  0.81476523  0.71517682     0.19500
C1021       C  0.68186410  0.88444073  0.69964403    -0.55400
C1022       C  0.66364801  0.84480273  0.68679886     0.08600
C1023       C  0.63812113  0.86517150  0.75246950    -0.54900
C1024       C  0.61933429  0.82505572  0.74114770     0.09200
H1025       H  0.75040946  0.88055596  0.76519011     0.13700
H1026       H  0.63699767  0.78342478  0.70444531    -0.00500
H1027       H  0.68727493  0.90917900  0.68373709     0.14000
H1028       H  0.61813546  0.87703602  0.77019154     0.13800
C1029       C  0.98549092  0.94532864  0.93144654     0.85600
C1030       C  0.53197917  0.97506084  0.91338912    -0.54600
C1031       C  0.54662101  0.51512838  0.92406885     0.08500
C1032       C  0.51165966  0.52255390  0.94996874     0.19500
C1033       C  0.99593132  0.95620489  0.97004646    -0.55400
C1034       C  0.50893585  0.49645487  0.98026050     0.08600
C1035       C  0.94750087  0.96138706  0.92322994    -0.54900
C1036       C  0.96104845  0.50163956  0.93236227     0.09200
H1037       H  0.55108576  0.96635685  0.89274777     0.13700
H1038       H  0.52291269  0.55538403  0.95671845    -0.00500
H1039       H  0.99307305  0.93324021  0.98725468     0.14000
H1040       H  0.91342825  0.94280193  0.90976068     0.13800
O1041       O  0.62461106  0.53209844  0.46524646    -0.81800
O1042       O  0.92618489  0.93983529  0.53686651    -0.66500
O1043       O  0.52244521  0.99722713  0.47190224    -1.13100
C1044       C  0.54015142  0.61187458  0.54814135     1.05100
O1045       O  0.89417363  0.98460597  0.53568760    -0.79700
O1046       O  0.93756479  0.55743798  0.50682866    -0.67300
Ni1047     Ni  0.57083163  0.97950134  0.45547612     1.34900
C1048       C  0.95929647  0.56591264  0.47816478     0.83800
O1049       O  0.95599456  0.91576441  0.47762526    -0.80200
O1050       O  0.52143127  0.92573056  0.44368160    -0.90500
C1051       C  0.89080091  0.94970886  0.54227454     0.83400
O1052       O  0.58321528  0.96101923  0.49716089    -0.68700
O1053       O  0.49911727  0.58877230  0.56090727    -0.88000
C1054       C  0.55922157  0.95073887  0.52481716     0.84200
C1055       C  0.97893720  0.90338384  0.45490766     1.05800
H1056       H  0.51489518  0.51800585  0.54958739     0.37600
O1057       O  0.49653983  0.51841511  0.52984930    -1.10600
O1058       O  0.49782890  0.56074368  0.47083151    -0.67300
Ni1059     Ni  0.54294700  0.54891173  0.49724698     1.26300
O1060       O  0.51916927  0.95391220  0.53069141    -0.67500
O1061       O  0.56161865  0.60035146  0.52369242    -0.79800
C1062       C  0.62665734  0.56643986  0.45812597     0.83600
O1063       O  0.59127624  0.57611893  0.46432425    -0.67000
Ni1064     Ni  0.94876756  0.53615028  0.54736644     1.27400
Ni1065     Ni  0.97529086  0.96693376  0.50425006     1.26100
H1066       H  0.50443963  0.99745049  0.45165018     0.38200
C1067       C  0.89144266  0.73222891  0.40094136     0.85600
C1068       C  0.83676475  0.71344448  0.41031577    -0.54600
C1069       C  0.81200738  0.67295925  0.40106476     0.08500
C1070       C  0.84442145  0.65460258  0.38174852     0.19500
C1071       C  0.90984986  0.70369614  0.41771459    -0.55400
C1072       C  0.88668580  0.66331861  0.40676541     0.08600
C1073       C  0.89283518  0.72242638  0.36207838    -0.54900
C1074       C  0.86817930  0.68204533  0.35167684     0.09200
H1075       H  0.81964635  0.73021922  0.42544497     0.13700
H1076       H  0.82439387  0.62187824  0.37377133    -0.00500
H1077       H  0.93666229  0.71343282  0.43819661     0.14000
H1078       H  0.91213558  0.74592676  0.34459806     0.13800
C1079       C  0.62556524  0.78401874  0.59837591     0.85600
C1080       C  0.62828779  0.79210627  0.63745333    -0.54600
C1081       C  0.65447227  0.83175324  0.64914443     0.08500
C1082       C  0.67455579  0.86065866  0.61961943     0.19500
C1083       C  0.60503444  0.81323225  0.58557795    -0.55400
C1084       C  0.62952991  0.85341869  0.59750445     0.08600
C1085       C  0.67851488  0.80320447  0.58542903    -0.54900
C1086       C  0.70410040  0.84296291  0.59612389     0.09200
H1087       H  0.60994788  0.76737371  0.65392187     0.13700
H1088       H  0.69606516  0.89259523  0.62895295    -0.00500
H1089       H  0.57676921  0.80445509  0.56621640     0.14000
H1090       H  0.69377428  0.78724766  0.56751599     0.13800
O1091       O  0.77880784  0.81284570  0.21102367    -0.81800
O1092       O  0.68343578  0.90906032  0.13190611    -0.66500
O1093       O  0.71394153  0.84781992  0.19650288    -1.13100
C1094       C  0.62624304  0.73717322  0.11470767     1.05100
O1095       O  0.60883006  0.86337357  0.13502388    -0.79700
O1096       O  0.57348769  0.78927089  0.15923258    -0.67300
Ni1097     Ni  0.77901642  0.86599493  0.21358931     1.34900
C1098       C  0.58450947  0.77943385  0.18720418     0.83800
O1099       O  0.72559274  0.92867152  0.19452067    -0.80200
O1100       O  0.78745694  0.92178185  0.21990072    -0.90500
C1101       C  0.63859701  0.89699276  0.12425682     0.83400
O1102       O  0.80838048  0.87398507  0.16952098    -0.68700
O1103       O  0.60831213  0.76033832  0.10361554    -0.88000
C1104       C  0.80352322  0.89496453  0.14663793     0.84200
C1105       C  0.76402797  0.94251620  0.21310930     1.05800
H1106       H  0.69695624  0.83280018  0.11709941     0.37600
O1107       O  0.67564438  0.83027017  0.13662296    -1.10600
O1108       O  0.62739095  0.78340918  0.19348692    -0.67300
Ni1109     Ni  0.68723124  0.79781253  0.16802071     1.26300
O1110       O  0.76411619  0.89923623  0.14254939    -0.67500
O1111       O  0.65815423  0.74825155  0.13876668    -0.79800
C1112       C  0.74527622  0.77690054  0.21054399     0.83600
O1113       O  0.70256520  0.76740771  0.19945307    -0.67000
Ni1114     Ni  0.61065512  0.81254727  0.11959952     1.27400
Ni1115     Ni  0.70077342  0.88010439  0.16482549     1.26100
H1116       H  0.69328706  0.84582515  0.21634179     0.38200
C1117       C  0.54410328  0.56420334  0.06563948     0.85600
C1118       C  0.57409244  0.54149572  0.07764963    -0.54600
C1119       C  0.55466648  0.00012015  0.06810963     0.08500
C1120       C  0.00619287  0.98610563  0.04783590     0.19500
C1121       C  0.53786890  0.55371058  0.02679371    -0.55400
C1122       C  0.51833076  0.51302958  0.01706865     0.08600
C1123       C  0.99396237  0.53977424  0.08150437    -0.54900
C1124       C  0.97346165  0.99949295  0.07194650     0.09200
H1125       H  0.60629403  0.55665047  0.09386038     0.13700
H1126       H  0.98897522  0.95359331  0.03969168    -0.00500
H1127       H  0.54887767  0.57734053  0.00883072     0.14000
H1128       H  0.97893186  0.55160279  0.10288283     0.13800
C1129       C  0.84453630  0.61465110  0.26621691     0.85600
C1130       C  0.89555174  0.64306004  0.25285038    -0.54600
C1131       C  0.91026685  0.68397525  0.26160095     0.08500
C1132       C  0.87186002  0.69245329  0.28382623     0.19500
C1133       C  0.85138692  0.62612471  0.30520629    -0.55400
C1134       C  0.86327591  0.66612733  0.31477229     0.08600
C1135       C  0.80989721  0.63231128  0.25405081    -0.54900
C1136       C  0.82428400  0.67274985  0.26246154     0.09200
H1137       H  0.91877875  0.63162490  0.23819172     0.13700
H1138       H  0.88233123  0.72487485  0.29158276    -0.00500
H1139       H  0.85431262  0.60630880  0.32345862     0.14000
H1140       H  0.77755926  0.61449535  0.23846054     0.13800
C1141       C  0.89267889  0.94129024  0.14380019    -0.02700
C1142       C  0.84742737  0.91876282  0.12643556     0.06900
C1143       C  0.84397494  0.92281428  0.09103540    -0.02800
C1144       C  0.88512473  0.94933547  0.07328066    -0.02900
C1145       C  0.93006572  0.97133708  0.09047295     0.07100
C1146       C  0.93366085  0.96736490  0.12589463    -0.03000
Br1147     Br  0.99557895  0.49601857  0.14998723    -0.01600
Br1148     Br  0.89921837  0.43941129  0.19285661    -0.01700
Br1149     Br  0.87909255  0.95747938  0.02591233    -0.01600
Br1150     Br  0.78340161  0.89148099  0.06644858    -0.01600
C1151       C  0.63569025  0.67772379  0.08277820    -0.02700
C1152       C  0.60597681  0.69427766  0.10020576     0.06900
C1153       C  0.55512132  0.67047592  0.10178666    -0.02800
C1154       C  0.53436111  0.63049666  0.08666069    -0.02900
C1155       C  0.56493303  0.61088088  0.07483205     0.07100
C1156       C  0.61520787  0.63659954  0.06947410    -0.03000
Br1157     Br  0.65473084  0.61842106  0.03917797    -0.01600
Br1158     Br  0.70392523  0.71221759  0.07545822    -0.01700
Br1159     Br  0.96553070  0.60958051  0.07459194    -0.01600
Br1160     Br  0.51293536  0.69213772  0.12552754    -0.01600
C1161       C  0.64905677  0.96212904  0.09599378    -0.02700
C1162       C  0.61923661  0.92199563  0.10527364     0.06900
C1163       C  0.56888376  0.90529904  0.09627792    -0.02800
C1164       C  0.54704659  0.93061473  0.08683117    -0.02900
C1165       C  0.57648699  0.97156283  0.07858098     0.07100
C1166       C  0.62810396  0.98494765  0.08007695    -0.03000
Br1167     Br  0.67122298  0.53161313  0.05626098    -0.01600
Br1168     Br  0.71898526  0.98697051  0.10356390    -0.01700
Br1169     Br  0.97644948  0.90639106  0.08893774    -0.01600
Br1170     Br  0.52865436  0.84672634  0.09339170    -0.01600
C1171       C  0.77613983  0.71504126  0.27073895    -0.02700
C1172       C  0.79932527  0.69624095  0.24847113     0.06900
C1173       C  0.80074318  0.70172893  0.21282373    -0.02800
C1174       C  0.78030635  0.72641266  0.20008008    -0.02900
C1175       C  0.75799443  0.74537435  0.22267519     0.07100
C1176       C  0.75486948  0.73899994  0.25782364    -0.03000
Br1177     Br  0.72291089  0.76461150  0.28830897    -0.01600
Br1178     Br  0.77484328  0.70979789  0.31910439    -0.01700
Br1179     Br  0.78542968  0.73660253  0.15192231    -0.01600
Br1180     Br  0.83611167  0.68049769  0.18157138    -0.01600
C1181       C  0.77684262  0.49487888  0.26129577    -0.02700
C1182       C  0.78395564  0.48531280  0.22685106     0.06900
C1183       C  0.81053534  0.51637099  0.20538206    -0.02800
C1184       C  0.82978309  0.55748620  0.21800471    -0.02900
C1185       C  0.82508423  0.56860128  0.25357730     0.07100
C1186       C  0.79555922  0.53590297  0.27459271    -0.03000
Br1187     Br  0.77169399  0.54314972  0.31988545    -0.01600
Br1188     Br  0.73876440  0.95053946  0.28970109    -0.01700
Br1189     Br  0.85811964  0.59660425  0.18365307    -0.01600
Br1190     Br  0.82106186  0.50191140  0.15810122    -0.01600
C1191       C  0.54255116  0.72829248  0.23164717    -0.02700
C1192       C  0.54496634  0.76107433  0.21291894     0.06900
C1193       C  0.50741162  0.77462270  0.21746287    -0.02800
C1194       C  0.96422361  0.75162063  0.23542636    -0.02900
C1195       C  0.95907520  0.71544623  0.25036485     0.07100
C1196       C  0.00082636  0.70700218  0.25144426    -0.03000
Br1197     Br  0.00231312  0.66753612  0.28166891    -0.01600
Br1198     Br  0.59386753  0.70938999  0.22880473    -0.01700
Br1199     Br  0.91374324  0.77117235  0.23808197    -0.01600
Br1200     Br  0.51575968  0.82575826  0.19994852    -0.01600
C1201       C  0.72419773  0.62041922  0.39380117    -0.02700
C1202       C  0.76253473  0.64809306  0.41539717     0.06900
C1203       C  0.75457951  0.64959467  0.45151295    -0.02800
C1204       C  0.70941646  0.62354610  0.46528210    -0.02900
C1205       C  0.67204750  0.59601334  0.44353038     0.07100
C1206       C  0.67913843  0.59469372  0.40787717    -0.03000
Br1207     Br  0.62688538  0.55655556  0.37851114    -0.01600
Br1208     Br  0.73207154  0.61645665  0.34494377    -0.01700
Br1209     Br  0.69930083  0.62359041  0.51427764    -0.01600
Br1210     Br  0.80659562  0.68290347  0.48337861    -0.01600
C1211       C  0.91265480  0.84482655  0.42227402    -0.02700
C1212       C  0.95643747  0.86034999  0.44119038     0.06900
C1213       C  0.98222018  0.83611213  0.44373280    -0.02800
C1214       C  0.96499821  0.79696222  0.42689934    -0.02900
C1215       C  0.91749565  0.77859087  0.41165875     0.07100
C1216       C  0.89389832  0.80476188  0.40686789    -0.03000
Br1217     Br  0.83903397  0.78901084  0.37610913    -0.01600
Br1218     Br  0.87907326  0.87916677  0.41668697    -0.01700
Br1219     Br  0.01363390  0.77609364  0.41715242    -0.01600
Br1220     Br  0.54103512  0.85606093  0.47151908    -0.01600
C1221       C  0.95255079  0.63956029  0.41574654    -0.02700
C1222       C  0.90263384  0.63217297  0.41846789     0.06900
C1223       C  0.87019806  0.59694335  0.43443490    -0.02800
C1224       C  0.88856956  0.57295379  0.45102890    -0.02900
C1225       C  0.93963784  0.58471426  0.45325087     0.07100
C1226       C  0.97151856  0.61754185  0.43437337    -0.03000
Br1227     Br  0.04184509  0.63606555  0.43616862    -0.01600
Br1228     Br  0.99465964  0.67814050  0.38445308    -0.01700
Br1229     Br  0.84305261  0.52354406  0.47060669    -0.01600
Br1230     Br  0.80063022  0.58067567  0.43510438    -0.01600
C1231       C  0.79458350  0.88282624  0.60231618    -0.02700
C1232       C  0.75264015  0.86781685  0.58139793     0.06900
C1233       C  0.75694912  0.87679768  0.54646529    -0.02800
C1234       C  0.80268071  0.90276994  0.53340001    -0.02900
C1235       C  0.84403063  0.91977765  0.55509231     0.07100
C1236       C  0.84013879  0.90933148  0.58944012    -0.03000
Br1237     Br  0.89670371  0.93280316  0.61923717    -0.01600
Br1238     Br  0.78959554  0.86495710  0.64790890    -0.01700
Br1239     Br  0.80892508  0.91488159  0.48571262    -0.01600
Br1240     Br  0.70002844  0.85564237  0.51680815    -0.01600
C1241       C  0.62485934  0.71254942  0.59385552    -0.02700
C1242       C  0.60024059  0.73776882  0.58803339     0.06900
C1243       C  0.55210041  0.71817295  0.57413234    -0.02800
C1244       C  0.53497769  0.67837347  0.55868126    -0.02900
C1245       C  0.56185712  0.65502412  0.56153309     0.07100
C1246       C  0.60565550  0.67157401  0.58052852    -0.03000
Br1247     Br  0.63715618  0.63696800  0.59050750    -0.01600
Br1248     Br  0.68251617  0.73176155  0.62300026    -0.01700
Br1249     Br  0.97349391  0.65560706  0.53379734    -0.01600
Br1250     Br  0.50294468  0.73818690  0.58480557    -0.01600
C1251       C  0.56341307  0.87636326  0.58708542    -0.02700
C1252       C  0.61396156  0.88552874  0.58717756     0.06900
C1253       C  0.64688492  0.92276166  0.57385365    -0.02800
C1254       C  0.62863770  0.94593321  0.55587236    -0.02900
C1255       C  0.57774718  0.93199135  0.55037768     0.07100
C1256       C  0.54506387  0.89769733  0.56725505    -0.03000
Br1257     Br  0.47483583  0.87604381  0.56082000    -0.01600
Br1258     Br  0.51906019  0.83643952  0.61638712    -0.01700
Br1259     Br  0.67377643  0.99732100  0.53890649    -0.01600
Br1260     Br  0.71682699  0.94423555  0.57966835    -0.01600
C1261       C  0.89967983  0.83080059  0.91336994    -0.02700
C1262       C  0.92874081  0.81777149  0.89117661     0.06900
C1263       C  0.97812279  0.84447973  0.88627454    -0.02800
C1264       C  0.99858435  0.88311705  0.90392223    -0.02900
C1265       C  0.96785784  0.89920025  0.92130945     0.07100
C1266       C  0.91894840  0.87107766  0.92842580    -0.03000
Br1267     Br  0.87851953  0.88529565  0.96121262    -0.01600
Br1268     Br  0.83374403  0.79295616  0.92422096    -0.01700
Br1269     Br  0.56843684  0.90610636  0.91222667    -0.01600
Br1270     Br  0.51792803  0.82973738  0.85352533    -0.01600
C1271       C  0.63814193  0.54572492  0.92237789    -0.02700
C1272       C  0.59411686  0.54730030  0.91310569     0.06900
C1273       C  0.59615049  0.57840590  0.89263118    -0.02800
C1274       C  0.64053596  0.60321747  0.87703332    -0.02900
C1275       C  0.68329713  0.59696799  0.88170568     0.07100
C1276       C  0.68280294  0.57081844  0.90726245    -0.03000
Br1277     Br  0.74171718  0.56743012  0.92195637    -0.01600
Br1278     Br  0.63712285  0.00912471  0.95631949    -0.01700
Br1279     Br  0.64256025  0.64677453  0.85024104    -0.01600
Br1280     Br  0.53865289  0.58705316  0.88479884    -0.01600
C1281       C  0.90556033  0.57817928  0.93370880    -0.02700
C1282       C  0.89433597  0.57654495  0.89888741     0.06900
C1283       C  0.89983831  0.54751434  0.87539862    -0.02800
C1284       C  0.92036206  0.52200198  0.88627425    -0.02900
C1285       C  0.93336128  0.52436569  0.92135066     0.07100
C1286       C  0.92413118  0.55166470  0.94506324    -0.03000
Br1287     Br  0.43629976  0.55341339  0.99323957    -0.01600
Br1288     Br  0.89632768  0.61767851  0.96561456    -0.01700
Br1289     Br  0.93726428  0.98919697  0.85145056    -0.01600
Br1290     Br  0.88300901  0.54515886  0.82761427    -0.01600
C1291       C  0.72035448  0.73104802  0.75285449    -0.02700
C1292       C  0.76798486  0.74880039  0.76691493     0.06900
C1293       C  0.79723814  0.79045125  0.76220268    -0.02800
C1294       C  0.77662051  0.81419278  0.74745414    -0.02900
C1295       C  0.72491219  0.79853971  0.74202148     0.07100
C1296       C  0.69707299  0.75561840  0.74452651    -0.03000
Br1297     Br  0.62644013  0.72694878  0.74211262    -0.01600
Br1298     Br  0.68740638  0.67255096  0.74207879    -0.01700
Br1299     Br  0.82169132  0.86698055  0.73293287    -0.01600
Br1300     Br  0.86600046  0.81602774  0.77481135    -0.01600
C1301       C  0.98704388  0.75145362  0.75801876    -0.02700
C1302       C  0.99052341  0.74046206  0.79162044     0.06900
C1303       C  0.53776748  0.75439711  0.80686905    -0.02800
C1304       C  0.57950941  0.78144733  0.79001788    -0.02900
C1305       C  0.57531950  0.79416544  0.75744451     0.07100
C1306       C  0.52923677  0.77851156  0.74129966    -0.03000
Br1307     Br  0.52388264  0.79607436  0.69691285    -0.01600
Br1308     Br  0.92509391  0.72842460  0.73392559    -0.01700
Br1309     Br  0.64284812  0.80118273  0.81213958    -0.01600
Br1310     Br  0.54720893  0.73996398  0.85220160    -0.01600
C1311       C  0.71960011  0.98842807  0.79887891    -0.02700
C1312       C  0.75008544  0.51941419  0.77819104     0.06900
C1313       C  0.76710043  0.50865358  0.74685820    -0.02800
C1314       C  0.75039534  0.96726138  0.73483652    -0.02900
C1315       C  0.71446684  0.93590222  0.75367146     0.07100
C1316       C  0.70542103  0.94718076  0.78797105    -0.03000
Br1317     Br  0.68434849  0.90858055  0.82316191    -0.01600
Br1318     Br  0.69531232  0.00210728  0.84193166    -0.01700
Br1319     Br  0.78446284  0.95503113  0.69602209    -0.01600
Br1320     Br  0.81577431  0.55107335  0.72152167    -0.01600
loop_ 
_geom_bond_atom_site_label_1 
_geom_bond_atom_site_label_2 
_geom_bond_distance 
_geom_bond_site_symmetry_2 
_ccdc_geom_bond_type 
O1           Ni7   1.928       .  S
O1           C22   1.271       .  A
O2          Ni25   1.911       .  S
O2           C11   1.264       .  A
O3           Ni7   1.899       .  S
O3          Ni25   1.911       .  S
O3          Ni19   1.915       .  S
O3           H26   0.966       .  S
C4           O21   1.277       .  A
C4           O13   1.277       .  A
C4          C322   1.485       .  S
O5          Ni24   1.924       .  S
O5           C11   1.269       .  A
O6          Ni24   1.913       .  S
O6            C8   1.269       .  A
Ni7          O10   1.944       .  S
Ni7          O12   1.901       .  S
C8           O18   1.266       .  A
C8          C285   1.496       .  S
O9          Ni25   1.912       .  S
O9           C15   1.275       .  A
O10          C15   1.280       .  A
C11         C302   1.498       .  S
O12          C14   1.261       .  A
O13         Ni24   1.929       .  S
C14          O20   1.274       .  A
C14         C312   1.497       .  S
C15         C272   1.486       .  S
H16          O17   0.966       .  S
O17         Ni25   1.917       .  S
O17         Ni19   1.894       .  S
O17         Ni24   1.909       .  S
O18         Ni19   1.920       .  S
Ni19         O23   1.887       .  S
Ni19         O21   1.929       .  S
O20         Ni25   1.948       .  S
C22          O23   1.262       .  A
C22         C292   1.460       .  S
C27          C28   1.538       .  S
C27          C33   1.542       .  S
C27          C31   1.546       .  S
C27         C325   1.554       .  S
C28          H35   1.083       .  S
C28          C29   1.375       .  D
C29          C30   1.544       .  S
C29         C305   1.525       .  S
C30          C34   1.546       .  S
C30          C32   1.542       .  S
C30          H36   1.087       .  S
C31          H37   1.082       .  S
C31          C32   1.366       .  D
C32          C91   1.507       .  S
C33          H38   1.084       .  S
C33          C34   1.364       .  D
C34         C315   1.490       .  S
C39          C45   1.536       .  S
C39          C43   1.536       .  S
C39         C700   1.549       .  S
C39         C275   1.551       .  S
C40         C699   1.549   1_455  S
C40          H47   1.081       .  S
C40         C371   1.365       .  D
C41          C42   1.529       .  S
C41         C370   1.365   1_545  D
C41         C282   1.490       .  S
C42          C44   1.547   1_545  S
C42         C706   1.541   1_455  S
C42          H48   1.106       .  S
C43          H49   1.082       .  S
C43        C1034   1.374       .  D
C44        C1033   1.374   1_455  D
C44         C132   1.503   1_566  S
C45          H50   1.085       .  S
C45         C376   1.363       .  D
C46         C702   1.541       .  S
C46         C375   1.363   1_545  D
C46         C295   1.487       .  S
O51        Ni387   1.932   1_545  S
O51          C72   1.273       .  A
O52         Ni75   1.903       .  S
O52          C61   1.267       .  A
O53         Ni57   1.903       .  S
O53        Ni735   1.898   1_455  S
O53        Ni399   1.914       .  S
O53          H76   0.973       .  S
C54          O71   1.279       .  A
C54          O63   1.276   1_455  A
C54         C255   1.480       .  S
O55        Ni404   1.932       .  S
O55          C61   1.272       .  A
O56         Ni74   1.908       .  S
O56          C58   1.270       .  A
Ni57         O60   1.921       .  S
Ni57         O62   1.908       .  S
Ni57        O381   1.932       .  S
C58         O728   1.272       .  A
C58         C235   1.494       .  S
O59         Ni75   1.925       .  S
O59          C65   1.278       .  A
O60         C725   1.277   1_455  A
C61         C245   1.470       .  S
O62          C64   1.270       .  A
O63        Ni734   1.918       .  S
C64          O70   1.271       .  A
C64         C265   1.490       .  S
C65         O720   1.277       .  A
C65         C222   1.480       .  S
H66          O67   0.965   1_455  S
O67         Ni69   1.896   1_655  S
O67       Ni1065   1.911   1_545  S
O67        Ni734   1.899       .  S
O68         Ni69   1.930   1_655  S
O68         C718   1.272       .  A
Ni69         O73   1.900       .  S
Ni69         O71   1.932       .  S
Ni69        O383   1.914   1_545  S
O70        Ni735   1.925   1_455  S
C72          O73   1.266       .  A
C72         C215   1.467       .  S
Ni74        O385   1.932   1_545  S
Ni74        O723   1.918       .  S
Ni74        O727   1.899       .  S
Ni75        O730   1.925       .  S
Ni75        O713   1.898       .  S
Ni75       O1057   1.911       .  S
C77          C78   1.537       .  S
C77          C83   1.535       .  S
C77          C81   1.553       .  S
C77         C225   1.557       .  S
C78          H85   1.086       .  S
C78          C79   1.363       .  D
C79          C80   1.548       .  S
C79         C212   1.496       .  S
C80          C84   1.550       .  S
C80          C82   1.535       .  S
C80          H86   1.106       .  S
C81          H87   1.081       .  S
C81          C82   1.371       .  D
C82         C232   1.504       .  S
C83          H88   1.084       .  S
C83          C84   1.370       .  D
C84         C144   1.499       .  S
C89          C90   1.529       .  S
C89          C95   1.532       .  S
C89          C93   1.550       .  S
C89         C252   1.549       .  S
C90          H97   1.082       .  S
C90          C91   1.367       .  D
C91          C92   1.548       .  S
C92          C96   1.547       .  S
C92          C94   1.544       .  S
C92          H98   1.102       .  S
C93          H99   1.081       .  S
C93          C94   1.379       .  D
C94         C262   1.510       .  S
C95         H100   1.087       .  S
C95          C96   1.357       .  D
C96         C242   1.481       .  S
O101       Ni107   1.922       .  S
O101        C122   1.268       .  A
O102       Ni125   1.930       .  S
O102        C111   1.268       .  A
O103       Ni107   1.907       .  S
O103       Ni125   1.921       .  S
O103       Ni119   1.924       .  S
O103        H126   0.966       .  S
C104        O121   1.279       .  A
C104        O113   1.278       .  A
C104        C162   1.485       .  S
O105       Ni124   1.921       .  S
O105        C111   1.265       .  A
O106       Ni124   1.911       .  S
O106        C108   1.267       .  A
Ni107       O110   1.929       .  S
Ni107       O112   1.895       .  S
C108        O118   1.266       .  A
C108        C202   1.493       .  S
O109       Ni125   1.910       .  S
O109        C115   1.273       .  A
O110        C115   1.273       .  A
C111        C172   1.510       .  S
O112        C114   1.265       .  A
O113       Ni124   1.924       .  S
C114        O120   1.275       .  A
C114        C152   1.480       .  S
C115        C522   1.473       .  S
H116        O117   0.966       .  S
O117       Ni125   1.912       .  S
O117       Ni119   1.895       .  S
O117       Ni124   1.905       .  S
O118       Ni119   1.919       .  S
Ni119       O123   1.896       .  S
Ni119       O121   1.932       .  S
O120       Ni125   1.936       .  S
C122        O123   1.263       .  A
C122        C185   1.462       .  S
C127        C128   1.556       .  S
C127        C131   1.533       .  S
C127        C793   1.531   1_455  S
C127        C165   1.556       .  S
C128        H135   1.084       .  S
C128        C459   1.388       .  D
C129        C790   1.547       .  S
C129        C458   1.388       .  D
C129        C175   1.524       .  S
C130        C134   1.541       .  S
C130        C789   1.547       .  S
C130       C1122   1.541       .  S
C130        H136   1.096       .  S
C131        H137   1.082       .  S
C131        C132   1.367       .  D
C132       C1120   1.541   1_545  S
C133        C787   1.531       .  S
C133        H138   1.084       .  S
C133        C464   1.353   1_545  D
C134        C463   1.353       .  D
C134        C155   1.484       .  S
C139        C140   1.546       .  S
C139        C145   1.536       .  S
C139        C143   1.544       .  S
C139        C195   1.565       .  S
C140        H147   1.084       .  S
C140        C141   1.377       .  D
C141        C142   1.545       .  S
C141        C205   1.509       .  S
C142        C146   1.541       .  S
C142        C144   1.543       .  S
C142        H148   1.103       .  S
C143        H149   1.079       .  S
C143        C144   1.366       .  D
C145        H150   1.087       .  S
C145        C146   1.360       .  D
C146        C182   1.490       .  S
C151        C152   1.419       .  A
C151        C156   1.403       .  A
C151       Br488   1.939       .  S
C152        C153   1.411       .  A
C153        C154   1.408       .  A
C153       Br160   1.931       .  S
C154        C155   1.407       .  A
C154       Br159   1.919       .  S
C155        C156   1.412       .  A
C156       Br487   1.939       .  S
Br157       C486   1.939       .  S
Br158       C481   1.939       .  S
C161        C162   1.407       .  A
C161        C166   1.416       .  A
C161       Br168   1.928       .  S
C162        C163   1.407       .  A
C163        C164   1.405       .  A
C163       Br170   1.938       .  S
C164        C165   1.430       .  A
C164       Br829   1.940   1_455  S
C165        C166   1.422       .  A
C166       Br167   1.927       .  S
Br169       C824   1.940       .  S
C171        C172   1.419       .  A
C171        C176   1.417       .  A
C171       Br178   1.930       .  S
C172        C173   1.418       .  A
C173        C174   1.409       .  A
C173       Br180   1.949       .  S
C174        C175   1.428       .  A
C174       Br839   1.928   1_455  S
C175        C176   1.420       .  A
C176       Br507   1.930       .  S
Br177       C506   1.930   1_545  S
Br179       C834   1.928       .  S
C181        C182   1.410       .  A
C181        C186   1.404       .  A
C181       Br188   1.908       .  S
C182        C183   1.416       .  A
C183        C184   1.405       .  A
C183       Br190   1.922       .  S
C184        C185   1.403       .  A
C184       Br189   1.931       .  S
C185        C186   1.401       .  A
C186       Br187   1.931       .  S
C191        C192   1.397       .  A
C191        C196   1.414   1_565  A
C191       Br528   1.940       .  S
C192        C445   1.473       .  S
C192        C193   1.397   1_565  A
C193        C194   1.409       .  A
C193       Br200   1.935       .  S
C194        C195   1.437       .  A
C194       Br199   1.932       .  S
C195        C196   1.443       .  A
C196       Br197   1.930       .  S
Br198       C521   1.940       .  S
C201        C202   1.416       .  A
C201        C866   1.409       .  A
C201       Br208   1.934       .  S
C202        C203   1.412       .  A
C203        C864   1.413   1_455  A
C203       Br210   1.938       .  S
C204        C205   1.422       .  A
C204        C863   1.413       .  A
C204       Br209   1.926       .  S
C205        C206   1.415       .  A
C206        C861   1.409       .  A
C206       Br207   1.936       .  S
C211        C212   1.416       .  A
C211        C216   1.406       .  A
C211       Br218   1.917       .  S
C212        C213   1.424       .  A
C213        C214   1.407       .  A
C213       Br220   1.937       .  S
C214        C215   1.402       .  A
C214       Br219   1.927       .  S
C215        C216   1.402       .  A
C216       Br217   1.933       .  S
C221        C222   1.402       .  A
C221        C226   1.412       .  A
C221       Br228   1.933       .  S
C222        C223   1.407       .  A
C223        C224   1.407       .  A
C223       Br890   1.935       .  S
C224        C225   1.424       .  A
C224       Br229   1.929       .  S
C225        C226   1.430       .  A
C226       Br227   1.926       .  S
Br230       C883   1.935   1_455  S
C231        C232   1.412       .  A
C231        C236   1.409       .  A
C231       Br238   1.930       .  S
C232        C233   1.416       .  A
C233        C234   1.411       .  A
C233       Br240   1.920       .  S
C234        C235   1.414       .  A
C234       Br239   1.935       .  S
C235        C236   1.417       .  A
C236       Br237   1.933       .  S
C241        C242   1.404       .  A
C241        C246   1.406       .  A
C241       Br248   1.918       .  S
C242        C243   1.414       .  A
C243        C244   1.407       .  A
C243       Br250   1.933       .  S
C244        C245   1.408       .  A
C244       Br249   1.929       .  S
C245        C246   1.408       .  A
C246       Br247   1.929       .  S
C251        C252   1.432       .  A
C251        C256   1.412       .  A
C251       Br258   1.941       .  S
C252        C253   1.421       .  A
C253        C254   1.406       .  A
C253       Br260   1.927       .  S
C254        C255   1.408       .  A
C254       Br919   1.935   1_455  S
C255        C256   1.404       .  A
C256       Br257   1.930       .  S
Br259       C914   1.935       .  S
C261        C262   1.413       .  A
C261        C266   1.406       .  A
C261       Br268   1.927       .  S
C262        C263   1.422       .  A
C263        C264   1.414       .  A
C263       Br270   1.925       .  S
C264        C265   1.413       .  A
C264       Br269   1.938       .  S
C265        C266   1.415       .  A
C266       Br267   1.936   1_455  S
C271        C272   1.408       .  A
C271        C276   1.413       .  A
C271       Br278   1.934       .  S
C272        C273   1.407       .  A
C273        C274   1.405       .  A
C273       Br940   1.925       .  S
C274        C275   1.420       .  A
C274       Br939   1.934       .  S
C275        C276   1.427       .  A
C276       Br277   1.930       .  S
Br279       C934   1.934   1_455  S
Br280       C933   1.925   1_455  S
C281        C282   1.408       .  A
C281        C286   1.409       .  A
C281       Br618   1.934       .  S
C282        C283   1.410       .  A
C283        C284   1.409       .  A
C283       Br290   1.920       .  S
C284        C285   1.416       .  A
C284       Br289   1.937       .  S
C285        C286   1.422       .  A
C286       Br287   1.934       .  S
Br288       C611   1.934       .  S
C291        C292   1.400       .  A
C291        C296   1.402       .  A
C291       Br298   1.933       .  S
C292        C293   1.405       .  A
C293        C294   1.405       .  A
C293       Br300   1.932       .  S
C294        C295   1.421       .  A
C294       Br629   1.938   1_545  S
C295        C296   1.413       .  A
C296       Br957   1.917       .  S
Br297       C956   1.917       .  S
Br299       C624   1.938       .  S
C301        C302   1.409       .  A
C301        C306   1.405       .  A
C301       Br308   1.945       .  S
C302        C303   1.415       .  A
C303        C304   1.415       .  A
C303       Br310   1.938       .  S
C304        C305   1.430       .  A
C304       Br309   1.938       .  S
C305        C306   1.434       .  A
C306       Br307   1.934       .  S
C311        C312   1.417       .  A
C311        C976   1.413       .  A
C311       Br318   1.931       .  S
C312        C973   1.424       .  A
C313        C314   1.408       .  A
C313        C972   1.424   1_455  A
C313       Br320   1.943       .  S
C314        C315   1.410       .  A
C314       Br319   1.935       .  S
C315        C316   1.406       .  A
C316        C971   1.413   1_455  A
C316       Br317   1.923       .  S
C321        C326   1.408       .  A
C321        C652   1.407       .  A
C321       Br328   1.928       .  S
C322        C323   1.404       .  A
C322        C651   1.407   1_545  A
C323        C654   1.415   1_545  A
C323       Br330   1.932       .  S
C324        C325   1.430       .  A
C324        C653   1.415       .  A
C324       Br329   1.933       .  S
C325        C326   1.423       .  A
C326       Br327   1.932       .  S
O331       Ni337   1.928       .  S
O331        C352   1.271       .  A
O332       Ni355   1.911       .  S
O332        C341   1.264       .  A
O333       Ni337   1.899       .  S
O333       Ni355   1.911       .  S
O333       Ni349   1.915       .  S
O333        H356   0.966       .  S
C334        O351   1.277       .  A
C334        O343   1.277       .  A
C334        C652   1.485       .  S
O335       Ni354   1.924       .  S
O335        C341   1.269       .  A
O336       Ni354   1.913       .  S
O336        C338   1.269       .  A
Ni337       O340   1.944       .  S
Ni337       O342   1.901       .  S
C338        O348   1.266       .  A
C338        C615   1.496       .  S
O339       Ni355   1.912       .  S
O339        C345   1.275       .  A
O340        C345   1.280       .  A
C341        C632   1.498       .  S
O342        C344   1.261       .  A
O343       Ni354   1.929       .  S
C344        O350   1.274       .  A
C344        C642   1.497       .  S
C345        C602   1.486       .  S
H346        O347   0.966       .  S
O347       Ni355   1.917       .  S
O347       Ni349   1.894       .  S
O347       Ni354   1.909       .  S
O348       Ni349   1.920       .  S
Ni349       O353   1.887       .  S
Ni349       O351   1.929       .  S
O350       Ni355   1.948       .  S
C352        O353   1.262       .  A
C352        C622   1.460       .  S
C357        C358   1.538       .  S
C357        C363   1.542       .  S
C357        C361   1.546       .  S
C357        C655   1.554       .  S
C358        H365   1.083       .  S
C358        C359   1.375       .  D
C359        C360   1.544       .  S
C359        C635   1.525       .  S
C360        C364   1.546       .  S
C360        C362   1.542       .  S
C360        H366   1.087       .  S
C361        H367   1.082       .  S
C361        C362   1.366       .  D
C362        C421   1.507       .  S
C363        H368   1.084       .  S
C363        C364   1.364       .  D
C364        C645   1.490       .  S
C369       C1030   1.549       .  S
C369        C375   1.536       .  S
C369        C373   1.536       .  S
C369        C605   1.551       .  S
C370       C1029   1.549   1_455  S
C370        H377   1.081       .  S
C371        C372   1.529       .  S
C371        C612   1.490       .  S
C372       C1036   1.541   1_455  S
C372        C374   1.547       .  S
C372        H378   1.106       .  S
C373        H379   1.082       .  S
C373        C704   1.374       .  D
C374        C703   1.374   1_455  D
C374        C462   1.503   1_556  S
C375        H380   1.085       .  S
C376       C1032   1.541       .  S
C376        C625   1.487       .  S
O381        C402   1.273       .  A
O382       Ni405   1.903       .  S
O382        C391   1.267       .  A
O383       Ni387   1.903       .  S
O383      Ni1065   1.898   1_455  S
O383        H406   0.973       .  S
C384        O401   1.279       .  A
C384        O393   1.276   1_455  A
C384        C585   1.480       .  S
O385        C391   1.272       .  A
O386       Ni404   1.908       .  S
O386        C388   1.270       .  A
Ni387       O390   1.921       .  S
Ni387       O392   1.908       .  S
C388       O1058   1.272       .  A
C388        C565   1.494       .  S
O389       Ni405   1.925       .  S
O389        C395   1.278       .  A
O390       C1055   1.277   1_455  A
C391        C575   1.470       .  S
O392        C394   1.270       .  A
O393      Ni1064   1.918       .  S
C394        O400   1.271       .  A
C394        C595   1.490       .  S
C395       O1050   1.277       .  A
C395        C552   1.480       .  S
H396        O397   0.965   1_455  S
O397       Ni735   1.911       .  S
O397       Ni399   1.896   1_655  S
O397      Ni1064   1.899       .  S
O398       Ni399   1.930   1_655  S
O398       C1048   1.272       .  A
Ni399       O403   1.900       .  S
Ni399       O401   1.932       .  S
O400      Ni1065   1.925   1_455  S
C402        O403   1.266       .  A
C402        C545   1.467       .  S
Ni404      O1053   1.918       .  S
Ni404      O1057   1.899       .  S
Ni405      O1060   1.925       .  S
Ni405      O1043   1.898       .  S
Ni405       O727   1.911   1_565  S
C407        C408   1.537       .  S
C407        C413   1.535       .  S
C407        C411   1.553       .  S
C407        C555   1.557       .  S
C408        H415   1.086       .  S
C408        C409   1.363       .  D
C409        C410   1.548       .  S
C409        C542   1.496       .  S
C410        C414   1.550       .  S
C410        C412   1.535       .  S
C410        H416   1.106       .  S
C411        H417   1.081       .  S
C411        C412   1.371       .  D
C412        C562   1.504       .  S
C413        H418   1.084       .  S
C413        C414   1.370       .  D
C414        C474   1.499       .  S
C419        C420   1.529       .  S
C419        C425   1.532       .  S
C419        C423   1.550       .  S
C419        C582   1.549       .  S
C420        H427   1.082       .  S
C420        C421   1.367       .  D
C421        C422   1.548       .  S
C422        C426   1.547       .  S
C422        C424   1.544       .  S
C422        H428   1.102       .  S
C423        H429   1.081       .  S
C423        C424   1.379       .  D
C424        C592   1.510       .  S
C425        H430   1.087       .  S
C425        C426   1.357       .  D
C426        C572   1.481       .  S
O431       Ni437   1.922       .  S
O431        C452   1.268       .  A
O432       Ni455   1.930       .  S
O432        C441   1.268       .  A
O433       Ni437   1.907       .  S
O433       Ni455   1.921       .  S
O433       Ni449   1.924       .  S
O433        H456   0.966       .  S
C434        O451   1.279       .  A
C434        O443   1.279       .  A
C434        C492   1.485       .  S
O435       Ni454   1.921       .  S
O435        C441   1.265       .  A
O436       Ni454   1.911       .  S
O436        C438   1.267       .  A
Ni437       O440   1.929       .  S
Ni437       O442   1.895       .  S
C438        O448   1.266       .  A
C438        C532   1.493       .  S
O439       Ni455   1.910       .  S
O439        C445   1.273       .  A
O440        C445   1.273       .  A
C441        C502   1.510       .  S
O442        C444   1.265       .  A
O443       Ni454   1.924       .  S
C444        O450   1.275       .  A
C444        C482   1.480       .  S
H446        O447   0.966       .  S
O447       Ni455   1.912       .  S
O447       Ni449   1.895       .  S
O447       Ni454   1.905       .  S
O448       Ni449   1.919       .  S
Ni449       O453   1.896       .  S
Ni449       O451   1.932       .  S
O450       Ni455   1.936       .  S
C452        O453   1.263       .  A
C452        C515   1.462       .  S
C457        C458   1.556       .  S
C457       C1123   1.531   1_455  S
C457        C461   1.533       .  S
C457        C495   1.556       .  S
C458        H465   1.084       .  S
C459       C1120   1.547   1_545  S
C459        C505   1.524   1_545  S
C460       C1119   1.547   1_565  S
C460        C464   1.541       .  S
C460        C792   1.541   1_565  S
C460        H466   1.096       .  S
C461        H467   1.082       .  S
C461        C462   1.367       .  D
C462        C790   1.541       .  S
C463       C1117   1.531       .  S
C463        H468   1.084       .  S
C464        C485   1.484       .  S
C469        C470   1.546       .  S
C469        C475   1.536       .  S
C469        C473   1.544       .  S
C469        C525   1.565       .  S
C470        H477   1.084       .  S
C470        C471   1.377       .  D
C471        C472   1.545       .  S
C471        C535   1.509       .  S
C472        C476   1.541       .  S
C472        C474   1.543       .  S
C472        H478   1.103       .  S
C473        H479   1.079       .  S
C473        C474   1.366       .  D
C475        H480   1.087       .  S
C475        C476   1.360       .  D
C476        C512   1.490       .  S
C481        C482   1.419       .  A
C481        C486   1.403       .  A
C482        C483   1.411       .  A
C483        C484   1.408       .  A
C483       Br490   1.931       .  S
C484        C485   1.407       .  A
C484       Br489   1.919       .  S
C485        C486   1.412       .  A
C491        C492   1.407       .  A
C491        C496   1.416       .  A
C491       Br498   1.928       .  S
C492        C493   1.407       .  A
C493        C494   1.405       .  A
C493       Br500   1.938       .  S
C494        C495   1.430       .  A
C494      Br1159   1.940   1_455  S
C495        C496   1.422       .  A
C496       Br497   1.927       .  S
Br499      C1154   1.940       .  S
C501        C502   1.419       .  A
C501        C506   1.417       .  A
C501       Br508   1.930       .  S
C502        C503   1.418       .  A
C503        C504   1.409       .  A
C503       Br510   1.949       .  S
C504        C505   1.428       .  A
C504      Br1169   1.928   1_455  S
C505        C506   1.420       .  A
Br509      C1164   1.928       .  S
C511        C512   1.410       .  A
C511        C516   1.404       .  A
C511       Br518   1.908       .  S
C512        C513   1.416       .  A
C513        C514   1.405       .  A
C513       Br520   1.922       .  S
C514        C515   1.403       .  A
C514       Br519   1.931       .  S
C515        C516   1.401       .  A
C516       Br517   1.931       .  S
C521        C522   1.397       .  A
C521        C526   1.414       .  A
C522        C523   1.397       .  A
C523        C524   1.409       .  A
C523       Br530   1.935       .  S
C524        C525   1.437       .  A
C524       Br529   1.932       .  S
C525        C526   1.443       .  A
C526       Br527   1.930       .  S
C531        C532   1.416       .  A
C531       C1196   1.409       .  A
C531       Br538   1.934       .  S
C532        C533   1.412       .  A
C533       C1194   1.413   1_455  A
C533       Br540   1.938       .  S
C534       C1193   1.413       .  A
C534        C535   1.422       .  A
C534       Br539   1.926       .  S
C535        C536   1.415       .  A
C536       C1191   1.409       .  A
C536       Br537   1.936       .  S
C541        C542   1.416       .  A
C541        C546   1.406       .  A
C541       Br548   1.917       .  S
C542        C543   1.424       .  A
C543        C544   1.407       .  A
C543       Br550   1.937       .  S
C544        C545   1.402       .  A
C544       Br549   1.927       .  S
C545        C546   1.402       .  A
C546       Br547   1.933       .  S
C551        C552   1.402       .  A
C551        C556   1.412       .  A
C551       Br558   1.933       .  S
C552        C553   1.407       .  A
C553        C554   1.407       .  A
C553      Br1220   1.935       .  S
C554        C555   1.424       .  A
C554       Br559   1.929       .  S
C555        C556   1.430       .  A
C556       Br557   1.926       .  S
Br560      C1213   1.935   1_455  S
C561        C562   1.412       .  A
C561        C566   1.409       .  A
C561       Br568   1.930       .  S
C562        C563   1.416       .  A
C563        C564   1.411       .  A
C563       Br570   1.920       .  S
C564        C565   1.414       .  A
C564       Br569   1.935       .  S
C565        C566   1.417       .  A
C566       Br567   1.933       .  S
C571        C572   1.404       .  A
C571        C576   1.406       .  A
C571       Br578   1.918       .  S
C572        C573   1.414       .  A
C573        C574   1.407       .  A
C573       Br580   1.933       .  S
C574        C575   1.408       .  A
C574       Br579   1.929       .  S
C575        C576   1.408       .  A
C576       Br577   1.929       .  S
C581        C582   1.432       .  A
C581        C586   1.412       .  A
C581       Br588   1.941       .  S
C582        C583   1.421       .  A
C583        C584   1.406       .  A
C583       Br590   1.927       .  S
C584        C585   1.408       .  A
C584      Br1249   1.935   1_455  S
C585        C586   1.404       .  A
C586       Br587   1.930       .  S
Br589      C1244   1.935       .  S
C591        C592   1.413       .  A
C591        C596   1.406       .  A
C591       Br598   1.927       .  S
C592        C593   1.422       .  A
C593        C594   1.414       .  A
C593       Br600   1.925       .  S
C594        C595   1.413       .  A
C594       Br599   1.938       .  S
C595        C596   1.415       .  A
C596       Br597   1.936   1_455  S
C601        C602   1.408       .  A
C601        C606   1.413       .  A
C601       Br608   1.934       .  S
C602        C603   1.407       .  A
C603        C604   1.405       .  A
C603      Br1270   1.925       .  S
C604        C605   1.420       .  A
C604      Br1269   1.934       .  S
C605        C606   1.427       .  A
C606       Br607   1.930       .  S
Br609      C1264   1.934   1_455  S
Br610      C1263   1.925   1_455  S
C611        C612   1.408       .  A
C611        C616   1.409       .  A
C612        C613   1.410       .  A
C613        C614   1.409       .  A
C613       Br620   1.920       .  S
C614        C615   1.416       .  A
C614       Br619   1.937       .  S
C615        C616   1.422       .  A
C616       Br617   1.934       .  S
C621        C622   1.400       .  A
C621        C626   1.402       .  A
C621       Br628   1.933       .  S
C622        C623   1.405       .  A
C623        C624   1.405       .  A
C623       Br630   1.932       .  S
C624        C625   1.421       .  A
C625        C626   1.413       .  A
C626      Br1287   1.917       .  S
Br627      C1286   1.917       .  S
C631        C632   1.409       .  A
C631        C636   1.405       .  A
C631       Br638   1.945       .  S
C632        C633   1.415       .  A
C633        C634   1.415       .  A
C633       Br640   1.938       .  S
C634        C635   1.430       .  A
C634       Br639   1.938       .  S
C635        C636   1.434       .  A
C636       Br637   1.934       .  S
C641        C642   1.417       .  A
C641       C1306   1.413       .  A
C641       Br648   1.931       .  S
C642       C1303   1.424       .  A
C643       C1302   1.424   1_455  A
C643        C644   1.408       .  A
C643       Br650   1.943       .  S
C644        C645   1.410       .  A
C644       Br649   1.935       .  S
C645        C646   1.406       .  A
C646       C1301   1.413   1_455  A
C646       Br647   1.923       .  S
C651        C656   1.408       .  A
C651       Br658   1.928   1_565  S
C652        C653   1.404       .  A
C653       Br660   1.932       .  S
C654        C655   1.430       .  A
C654       Br659   1.933       .  S
C655        C656   1.423       .  A
C656       Br657   1.932       .  S
O661       Ni667   1.928       .  S
O661        C682   1.271       .  A
O662       Ni685   1.911       .  S
O662        C671   1.264       .  A
O663       Ni667   1.899       .  S
O663       Ni685   1.911       .  S
O663       Ni679   1.915       .  S
O663        H686   0.966       .  S
C664        O681   1.277       .  A
C664        O673   1.277       .  A
C664        C982   1.485       .  S
O665       Ni684   1.924       .  S
O665        C671   1.269       .  A
O666       Ni684   1.913       .  S
O666        C668   1.269       .  A
Ni667       O670   1.944       .  S
Ni667       O672   1.901       .  S
C668        O678   1.266       .  A
C668        C945   1.496       .  S
O669       Ni685   1.912       .  S
O669        C675   1.275       .  A
O670        C675   1.280       .  A
C671        C962   1.498       .  S
O672        C674   1.261       .  A
O673       Ni684   1.929       .  S
C674        O680   1.274       .  A
C674        C972   1.497       .  S
C675        C932   1.486       .  S
H676        O677   0.966       .  S
O677       Ni685   1.917       .  S
O677       Ni679   1.894       .  S
O677       Ni684   1.909       .  S
O678       Ni679   1.920       .  S
Ni679       O683   1.887       .  S
Ni679       O681   1.929       .  S
O680       Ni685   1.948       .  S
C682        O683   1.262       .  A
C682        C952   1.460       .  S
C687        C688   1.538       .  S
C687        C693   1.542       .  S
C687        C691   1.546       .  S
C687        C985   1.554       .  S
C688        H695   1.083       .  S
C688        C689   1.375       .  D
C689        C690   1.544       .  S
C689        C965   1.525       .  S
C690        C694   1.546       .  S
C690        C692   1.542       .  S
C690        H696   1.087       .  S
C691        H697   1.082       .  S
C691        C692   1.366       .  D
C692        C751   1.507       .  S
C693        H698   1.084       .  S
C693        C694   1.364       .  D
C694        C975   1.490       .  S
C699        C705   1.536       .  S
C699        C703   1.536       .  S
C699        C935   1.551       .  S
C700        H707   1.081       .  S
C700       C1031   1.365       .  D
C701        C702   1.529       .  S
C701       C1030   1.365   1_545  D
C701        C942   1.490       .  S
C702        C704   1.547   1_545  S
C702        H708   1.106       .  S
C703        H709   1.082       .  S
C704        C792   1.503   1_566  S
C705        H710   1.085       .  S
C705       C1036   1.363       .  D
C706       C1035   1.363   1_545  D
C706        C955   1.487       .  S
O711      Ni1047   1.932   1_545  S
O711        C732   1.273       .  A
O712       Ni735   1.903       .  S
O712        C721   1.267       .  A
O713       Ni717   1.903       .  S
O713      Ni1059   1.914       .  S
O713        H736   0.973       .  S
C714        O731   1.279       .  A
C714        O723   1.276       .  A
C714        C915   1.480       .  S
O715      Ni1064   1.932       .  S
O715        C721   1.272       .  A
O716       Ni734   1.908       .  S
O716        C718   1.270       .  A
Ni717      O1041   1.932       .  S
Ni717       O720   1.921       .  S
Ni717       O722   1.908       .  S
C718        C895   1.494       .  S
O719       Ni735   1.925       .  S
O719        C725   1.278       .  A
C721        C905   1.470       .  S
O722        C724   1.270       .  A
C724        O730   1.271       .  A
C724        C925   1.490       .  S
C725        C882   1.480       .  S
H726        O727   0.965       .  S
O727       Ni729   1.896       .  S
O728       Ni729   1.930       .  S
Ni729       O733   1.900       .  S
Ni729       O731   1.932       .  S
Ni729      O1043   1.914   1_545  S
C732        O733   1.266       .  A
C732        C875   1.467       .  S
Ni734      O1045   1.932   1_545  S
C737        C738   1.537       .  S
C737        C743   1.535       .  S
C737        C741   1.553       .  S
C737        C885   1.557       .  S
C738        H745   1.086       .  S
C738        C739   1.363       .  D
C739        C740   1.548       .  S
C739        C872   1.496       .  S
C740        C744   1.550       .  S
C740        C742   1.535       .  S
C740        H746   1.106       .  S
C741        H747   1.081       .  S
C741        C742   1.371       .  D
C742        C892   1.504       .  S
C743        H748   1.084       .  S
C743        C744   1.370       .  D
C744        C804   1.499       .  S
C749        C750   1.529       .  S
C749        C755   1.533       .  S
C749        C753   1.550       .  S
C749        C912   1.549       .  S
C750        H757   1.082       .  S
C750        C751   1.367       .  D
C751        C752   1.548       .  S
C752        C756   1.547       .  S
C752        C754   1.544       .  S
C752        H758   1.102       .  S
C753        H759   1.081       .  S
C753        C754   1.379       .  D
C754        C922   1.510       .  S
C755        H760   1.087       .  S
C755        C756   1.357       .  D
C756        C902   1.481       .  S
O761       Ni767   1.922       .  S
O761        C782   1.268       .  A
O762       Ni785   1.930       .  S
O762        C771   1.268       .  A
O763       Ni767   1.907       .  S
O763       Ni785   1.921       .  S
O763       Ni779   1.924       .  S
O763        H786   0.966       .  S
C764        O781   1.279       .  A
C764        O773   1.278       .  A
C764        C822   1.485       .  S
O765       Ni784   1.921       .  S
O765        C771   1.265       .  A
O766       Ni784   1.911       .  S
O766        C768   1.267       .  A
Ni767       O770   1.929       .  S
Ni767       O772   1.895       .  S
C768        O778   1.266       .  A
C768        C862   1.493       .  S
O769       Ni785   1.910       .  S
O769        C775   1.273       .  A
O770        C775   1.273       .  A
C771        C832   1.510       .  S
O772        C774   1.265       .  A
O773       Ni784   1.924       .  S
C774        O780   1.275       .  A
C774        C812   1.480       .  S
C775       C1182   1.473       .  S
H776        O777   0.966       .  S
O777       Ni785   1.912       .  S
O777       Ni779   1.895       .  S
O777       Ni784   1.905       .  S
O778       Ni779   1.919       .  S
Ni779       O783   1.896       .  S
Ni779       O781   1.932       .  S
O780       Ni785   1.936       .  S
C782        O783   1.263       .  A
C782        C845   1.462       .  S
C787        C788   1.556       .  S
C787        C791   1.533       .  S
C787        C825   1.556       .  S
C788        H795   1.084       .  S
C788       C1119   1.388       .  D
C789       C1118   1.388       .  D
C789        C835   1.524       .  S
C790        C794   1.541   1_455  S
C790        H796   1.096   1_455  S
C791        H797   1.082       .  S
C791        C792   1.367       .  D
C793        H798   1.084       .  S
C793       C1124   1.353   1_545  D
C794       C1123   1.353       .  D
C794        C815   1.484       .  S
C799        C800   1.546       .  S
C799        C805   1.536       .  S
C799        C803   1.544       .  S
C799        C855   1.565       .  S
C800        H807   1.084       .  S
C800        C801   1.377       .  D
C801        C802   1.545       .  S
C801        C865   1.509       .  S
C802        C806   1.541       .  S
C802        C804   1.543       .  S
C802        H808   1.103       .  S
C803        H809   1.079       .  S
C803        C804   1.366       .  D
C805        H810   1.087       .  S
C805        C806   1.360       .  D
C806        C842   1.490       .  S
C811        C812   1.419       .  A
C811        C816   1.403       .  A
C811      Br1148   1.939       .  S
C812        C813   1.411       .  A
C813        C814   1.408       .  A
C813       Br820   1.931       .  S
C814        C815   1.407       .  A
C814       Br819   1.919       .  S
C815        C816   1.412       .  A
C816      Br1147   1.939       .  S
Br817      C1146   1.939       .  S
Br818      C1141   1.939       .  S
C821        C822   1.407       .  A
C821        C826   1.416       .  A
C821       Br828   1.928       .  S
C822        C823   1.407       .  A
C823        C824   1.405       .  A
C823       Br830   1.938       .  S
C824        C825   1.430       .  A
C825        C826   1.422       .  A
C826       Br827   1.927       .  S
C831        C832   1.419       .  A
C831        C836   1.417       .  A
C831       Br838   1.930       .  S
C832        C833   1.418       .  A
C833        C834   1.409       .  A
C833       Br840   1.949       .  S
C834        C835   1.429       .  A
C835        C836   1.420       .  A
C836      Br1167   1.930       .  S
Br837      C1166   1.930   1_545  S
C841        C842   1.410       .  A
C841        C846   1.404       .  A
C841       Br848   1.908       .  S
C842        C843   1.416       .  A
C843        C844   1.405       .  A
C843       Br850   1.922       .  S
C844        C845   1.403       .  A
C844       Br849   1.931       .  S
C845        C846   1.401       .  A
C846       Br847   1.931       .  S
C851        C852   1.397       .  A
C851        C856   1.414   1_565  A
C851      Br1188   1.940       .  S
C852       C1105   1.473       .  S
C852        C853   1.397   1_565  A
C853        C854   1.409       .  A
C853       Br860   1.935       .  S
C854        C855   1.437       .  A
C854       Br859   1.932       .  S
C855        C856   1.443       .  A
C856       Br857   1.930       .  S
Br858      C1181   1.940       .  S
C861        C862   1.416       .  A
C861       Br868   1.934       .  S
C862        C863   1.412       .  A
C863       Br870   1.938       .  S
C864        C865   1.422       .  A
C864       Br869   1.926       .  S
C865        C866   1.415   1_655  A
C866       Br867   1.936       .  S
C871        C872   1.416       .  A
C871        C876   1.406       .  A
C871       Br878   1.917       .  S
C872        C873   1.424       .  A
C873        C874   1.407       .  A
C873       Br880   1.937       .  S
C874        C875   1.402       .  A
C874       Br879   1.927       .  S
C875        C876   1.402       .  A
C876       Br877   1.933       .  S
C881        C882   1.402       .  A
C881        C886   1.412       .  A
C881       Br888   1.933       .  S
C882        C883   1.407       .  A
C883        C884   1.407       .  A
C884        C885   1.424       .  A
C884       Br889   1.929   1_655  S
C885        C886   1.430       .  A
C886       Br887   1.926       .  S
C891        C892   1.412       .  A
C891        C896   1.409       .  A
C891       Br898   1.930       .  S
C892        C893   1.416       .  A
C893        C894   1.411       .  A
C893       Br900   1.920       .  S
C894        C895   1.414       .  A
C894       Br899   1.935       .  S
C895        C896   1.417       .  A
C896       Br897   1.933   1_655  S
C901        C902   1.404       .  A
C901        C906   1.406       .  A
C901       Br908   1.918       .  S
C902        C903   1.414       .  A
C903        C904   1.407       .  A
C903       Br910   1.933       .  S
C904        C905   1.408       .  A
C904       Br909   1.929       .  S
C905        C906   1.408       .  A
C906       Br907   1.929       .  S
C911        C912   1.432       .  A
C911        C916   1.412       .  A
C911       Br918   1.941       .  S
C912        C913   1.421       .  A
C913        C914   1.406       .  A
C913       Br920   1.927       .  S
C914        C915   1.408       .  A
C915        C916   1.404       .  A
C916       Br917   1.930       .  S
C921        C922   1.413       .  A
C921        C926   1.406       .  A
C921       Br928   1.927       .  S
C922        C923   1.422       .  A
C923        C924   1.414       .  A
C923       Br930   1.925       .  S
C924        C925   1.413       .  A
C924       Br929   1.938       .  S
C925        C926   1.415       .  A
C926       Br927   1.936       .  S
C931        C932   1.408       .  A
C931        C936   1.413       .  A
C931       Br938   1.934       .  S
C932        C933   1.407       .  A
C933        C934   1.405       .  A
C934        C935   1.420       .  A
C935        C936   1.427       .  A
C936       Br937   1.930       .  S
C941        C942   1.408       .  A
C941        C946   1.409       .  A
C941      Br1278   1.934       .  S
C942        C943   1.410       .  A
C943        C944   1.409       .  A
C943       Br950   1.920       .  S
C944        C945   1.416       .  A
C944       Br949   1.937       .  S
C945        C946   1.422       .  A
C946       Br947   1.934       .  S
Br948      C1271   1.934       .  S
C951        C952   1.400       .  A
C951        C956   1.402       .  A
C951       Br958   1.933       .  S
C952        C953   1.405       .  A
C953        C954   1.405       .  A
C953       Br960   1.932       .  S
C954        C955   1.421       .  A
C954      Br1289   1.938   1_545  S
C955        C956   1.413       .  A
Br959      C1284   1.938       .  S
C961        C962   1.409       .  A
C961        C966   1.405       .  A
C961       Br968   1.945       .  S
C962        C963   1.415       .  A
C963        C964   1.415       .  A
C963       Br970   1.938       .  S
C964        C965   1.430       .  A
C964       Br969   1.938       .  S
C965        C966   1.434       .  A
C966       Br967   1.934       .  S
C971        C972   1.417       .  A
C971       Br978   1.931       .  S
C973        C974   1.408       .  A
C973       Br980   1.943       .  S
C974        C975   1.410       .  A
C974       Br979   1.935       .  S
C975        C976   1.406       .  A
C976       Br977   1.923       .  S
C981       C1312   1.407       .  A
C981        C986   1.408       .  A
C981       Br988   1.928       .  S
C982       C1311   1.407   1_545  A
C982        C983   1.404       .  A
C983       C1314   1.415   1_545  A
C983       Br990   1.932       .  S
C984       C1313   1.415       .  A
C984        C985   1.430       .  A
C984       Br989   1.933       .  S
C985        C986   1.423       .  A
C986       Br987   1.932       .  S
O991       Ni997   1.928       .  S
O991       C1012   1.271       .  A
O992      Ni1015   1.911       .  S
O992       C1001   1.264       .  A
O993       Ni997   1.899       .  S
O993      Ni1015   1.911       .  S
O993      Ni1009   1.915       .  S
O993       H1016   0.966       .  S
C994       O1011   1.277       .  A
C994       O1003   1.277       .  A
C994       C1312   1.485       .  S
O995      Ni1014   1.924       .  S
O995       C1001   1.269       .  A
O996      Ni1014   1.913       .  S
O996        C998   1.269       .  A
Ni997      O1000   1.944       .  S
Ni997      O1002   1.901       .  S
C998       O1008   1.266       .  A
C998       C1275   1.496       .  S
O999      Ni1015   1.912       .  S
O999       C1005   1.275       .  A
O1000      C1005   1.280       .  A
C1001      C1292   1.498       .  S
O1002      C1004   1.261       .  A
O1003     Ni1014   1.929       .  S
C1004      O1010   1.274       .  A
C1004      C1302   1.497       .  S
C1005      C1262   1.486       .  S
H1006      O1007   0.966       .  S
O1007     Ni1015   1.917       .  S
O1007     Ni1009   1.894       .  S
O1007     Ni1014   1.909       .  S
O1008     Ni1009   1.920       .  S
Ni1009     O1013   1.887       .  S
Ni1009     O1011   1.929       .  S
O1010     Ni1015   1.948       .  S
C1012      O1013   1.262       .  A
C1012      C1282   1.460       .  S
C1017      C1018   1.538       .  S
C1017      C1023   1.542       .  S
C1017      C1021   1.546       .  S
C1017      C1315   1.554       .  S
C1018      H1025   1.083       .  S
C1018      C1019   1.375       .  D
C1019      C1020   1.544       .  S
C1019      C1295   1.525       .  S
C1020      C1024   1.546       .  S
C1020      C1022   1.542       .  S
C1020      H1026   1.087       .  S
C1021      H1027   1.082       .  S
C1021      C1022   1.366       .  D
C1022      C1081   1.507       .  S
C1023      H1028   1.084       .  S
C1023      C1024   1.364       .  D
C1024      C1305   1.490       .  S
C1029      C1035   1.536       .  S
C1029      C1033   1.536       .  S
C1029      C1265   1.551       .  S
C1030      H1037   1.081       .  S
C1031      C1032   1.529       .  S
C1031      C1272   1.490       .  S
C1032      C1034   1.547       .  S
C1032      H1038   1.106       .  S
C1033      H1039   1.082       .  S
C1034      C1122   1.503   1_556  S
C1035      H1040   1.085       .  S
C1036      C1285   1.487       .  S
O1041      C1062   1.273       .  A
O1042     Ni1065   1.903       .  S
O1042      C1051   1.267       .  A
O1043     Ni1047   1.903       .  S
O1043      H1066   0.973       .  S
C1044      O1061   1.279       .  A
C1044      O1053   1.276       .  A
C1044      C1245   1.480       .  S
O1045      C1051   1.272       .  A
O1046     Ni1064   1.908       .  S
O1046      C1048   1.270       .  A
Ni1047     O1050   1.921       .  S
Ni1047     O1052   1.908       .  S
C1048      C1225   1.494       .  S
O1049     Ni1065   1.925       .  S
O1049      C1055   1.278       .  A
C1051      C1235   1.470       .  S
O1052      C1054   1.270       .  A
C1054      O1060   1.271       .  A
C1054      C1255   1.490       .  S
C1055      C1212   1.480       .  S
H1056      O1057   0.965       .  S
O1057     Ni1059   1.896       .  S
O1058     Ni1059   1.930       .  S
Ni1059     O1063   1.900       .  S
Ni1059     O1061   1.932       .  S
C1062      O1063   1.266       .  A
C1062      C1205   1.467       .  S
C1067      C1068   1.537       .  S
C1067      C1073   1.535       .  S
C1067      C1071   1.553       .  S
C1067      C1215   1.557       .  S
C1068      H1075   1.086       .  S
C1068      C1069   1.363       .  D
C1069      C1070   1.548       .  S
C1069      C1202   1.496       .  S
C1070      C1074   1.550       .  S
C1070      C1072   1.535       .  S
C1070      H1076   1.106       .  S
C1071      H1077   1.081       .  S
C1071      C1072   1.371       .  D
C1072      C1222   1.504       .  S
C1073      H1078   1.084       .  S
C1073      C1074   1.370       .  D
C1074      C1134   1.499       .  S
C1079      C1080   1.529       .  S
C1079      C1085   1.533       .  S
C1079      C1083   1.550       .  S
C1079      C1242   1.549       .  S
C1080      H1087   1.082       .  S
C1080      C1081   1.367       .  D
C1081      C1082   1.548       .  S
C1082      C1086   1.547       .  S
C1082      C1084   1.544       .  S
C1082      H1088   1.102       .  S
C1083      H1089   1.081       .  S
C1083      C1084   1.379       .  D
C1084      C1252   1.510       .  S
C1085      H1090   1.087       .  S
C1085      C1086   1.357       .  D
C1086      C1232   1.481       .  S
O1091     Ni1097   1.922       .  S
O1091      C1112   1.268       .  A
O1092     Ni1115   1.930       .  S
O1092      C1101   1.268       .  A
O1093     Ni1097   1.907       .  S
O1093     Ni1115   1.921       .  S
O1093     Ni1109   1.924       .  S
O1093      H1116   0.966       .  S
C1094      O1111   1.279       .  A
C1094      O1103   1.278       .  A
C1094      C1152   1.485       .  S
O1095     Ni1114   1.921       .  S
O1095      C1101   1.265       .  A
O1096     Ni1114   1.911       .  S
O1096      C1098   1.267       .  A
Ni1097     O1100   1.929       .  S
Ni1097     O1102   1.895       .  S
C1098      O1108   1.266       .  A
C1098      C1192   1.493       .  S
O1099     Ni1115   1.910       .  S
O1099      C1105   1.273       .  A
O1100      C1105   1.273       .  A
C1101      C1162   1.510       .  S
O1102      C1104   1.265       .  A
O1103     Ni1114   1.924       .  S
C1104      O1110   1.275       .  A
C1104      C1142   1.480       .  S
H1106      O1107   0.966       .  S
O1107     Ni1115   1.912       .  S
O1107     Ni1109   1.895       .  S
O1107     Ni1114   1.905       .  S
O1108     Ni1109   1.919       .  S
Ni1109     O1113   1.896       .  S
Ni1109     O1111   1.932       .  S
O1110     Ni1115   1.936       .  S
C1112      O1113   1.263       .  A
C1112      C1175   1.462       .  S
C1117      C1118   1.556       .  S
C1117      C1121   1.533       .  S
C1117      C1155   1.556       .  S
C1118      H1125   1.084       .  S
C1119      C1165   1.524   1_545  S
C1120      C1124   1.541   1_455  S
C1120      H1126   1.096   1_455  S
C1121      H1127   1.082       .  S
C1121      C1122   1.367       .  D
C1123      H1128   1.084       .  S
C1124      C1145   1.484       .  S
C1129      C1130   1.546       .  S
C1129      C1135   1.536       .  S
C1129      C1133   1.544       .  S
C1129      C1185   1.565       .  S
C1130      H1137   1.084       .  S
C1130      C1131   1.377       .  D
C1131      C1132   1.545       .  S
C1131      C1195   1.509       .  S
C1132      C1136   1.541       .  S
C1132      C1134   1.543       .  S
C1132      H1138   1.103       .  S
C1133      H1139   1.079       .  S
C1133      C1134   1.366       .  D
C1135      H1140   1.087       .  S
C1135      C1136   1.360       .  D
C1136      C1172   1.490       .  S
C1141      C1142   1.419       .  A
C1141      C1146   1.403       .  A
C1142      C1143   1.411       .  A
C1143      C1144   1.408       .  A
C1143     Br1150   1.931       .  S
C1144      C1145   1.407       .  A
C1144     Br1149   1.919       .  S
C1145      C1146   1.412       .  A
C1151      C1152   1.407       .  A
C1151      C1156   1.416       .  A
C1151     Br1158   1.928       .  S
C1152      C1153   1.407       .  A
C1153      C1154   1.405       .  A
C1153     Br1160   1.938       .  S
C1154      C1155   1.430       .  A
C1155      C1156   1.422       .  A
C1156     Br1157   1.927       .  S
C1161      C1162   1.419       .  A
C1161      C1166   1.417       .  A
C1161     Br1168   1.930       .  S
C1162      C1163   1.418       .  A
C1163      C1164   1.409       .  A
C1163     Br1170   1.949       .  S
C1164      C1165   1.429       .  A
C1165      C1166   1.420       .  A
C1171      C1172   1.410       .  A
C1171      C1176   1.404       .  A
C1171     Br1178   1.908       .  S
C1172      C1173   1.416       .  A
C1173      C1174   1.405       .  A
C1173     Br1180   1.922       .  S
C1174      C1175   1.403       .  A
C1174     Br1179   1.931       .  S
C1175      C1176   1.401       .  A
C1176     Br1177   1.931       .  S
C1181      C1182   1.397       .  A
C1181      C1186   1.414       .  A
C1182      C1183   1.397       .  A
C1183      C1184   1.409       .  A
C1183     Br1190   1.935       .  S
C1184      C1185   1.437       .  A
C1184     Br1189   1.932       .  S
C1185      C1186   1.443       .  A
C1186     Br1187   1.930       .  S
C1191      C1192   1.416       .  A
C1191     Br1198   1.934       .  S
C1192      C1193   1.412       .  A
C1193     Br1200   1.938       .  S
C1194      C1195   1.422       .  A
C1194     Br1199   1.926       .  S
C1195      C1196   1.415   1_655  A
C1196     Br1197   1.936       .  S
C1201      C1202   1.416       .  A
C1201      C1206   1.406       .  A
C1201     Br1208   1.917       .  S
C1202      C1203   1.424       .  A
C1203      C1204   1.407       .  A
C1203     Br1210   1.937       .  S
C1204      C1205   1.402       .  A
C1204     Br1209   1.927       .  S
C1205      C1206   1.402       .  A
C1206     Br1207   1.933       .  S
C1211      C1212   1.402       .  A
C1211      C1216   1.412       .  A
C1211     Br1218   1.933       .  S
C1212      C1213   1.407       .  A
C1213      C1214   1.407       .  A
C1214      C1215   1.424       .  A
C1214     Br1219   1.929   1_655  S
C1215      C1216   1.430       .  A
C1216     Br1217   1.926       .  S
C1221      C1222   1.412       .  A
C1221      C1226   1.409       .  A
C1221     Br1228   1.930       .  S
C1222      C1223   1.416       .  A
C1223      C1224   1.411       .  A
C1223     Br1230   1.920       .  S
C1224      C1225   1.414       .  A
C1224     Br1229   1.935       .  S
C1225      C1226   1.417       .  A
C1226     Br1227   1.933   1_655  S
C1231      C1232   1.404       .  A
C1231      C1236   1.406       .  A
C1231     Br1238   1.918       .  S
C1232      C1233   1.414       .  A
C1233      C1234   1.407       .  A
C1233     Br1240   1.933       .  S
C1234      C1235   1.408       .  A
C1234     Br1239   1.929       .  S
C1235      C1236   1.408       .  A
C1236     Br1237   1.929       .  S
C1241      C1242   1.432       .  A
C1241      C1246   1.412       .  A
C1241     Br1248   1.941       .  S
C1242      C1243   1.421       .  A
C1243      C1244   1.406       .  A
C1243     Br1250   1.927       .  S
C1244      C1245   1.408       .  A
C1245      C1246   1.404       .  A
C1246     Br1247   1.930       .  S
C1251      C1252   1.413       .  A
C1251      C1256   1.406       .  A
C1251     Br1258   1.927       .  S
C1252      C1253   1.422       .  A
C1253      C1254   1.414       .  A
C1253     Br1260   1.925       .  S
C1254      C1255   1.413       .  A
C1254     Br1259   1.938       .  S
C1255      C1256   1.415       .  A
C1256     Br1257   1.936       .  S
C1261      C1262   1.408       .  A
C1261      C1266   1.413       .  A
C1261     Br1268   1.934       .  S
C1262      C1263   1.407       .  A
C1263      C1264   1.405       .  A
C1264      C1265   1.420       .  A
C1265      C1266   1.427       .  A
C1266     Br1267   1.930       .  S
C1271      C1272   1.408       .  A
C1271      C1276   1.409       .  A
C1272      C1273   1.410       .  A
C1273      C1274   1.409       .  A
C1273     Br1280   1.920       .  S
C1274      C1275   1.416       .  A
C1274     Br1279   1.937       .  S
C1275      C1276   1.422       .  A
C1276     Br1277   1.934       .  S
C1281      C1282   1.400       .  A
C1281      C1286   1.402       .  A
C1281     Br1288   1.933       .  S
C1282      C1283   1.405       .  A
C1283      C1284   1.405       .  A
C1283     Br1290   1.932       .  S
C1284      C1285   1.421       .  A
C1285      C1286   1.413       .  A
C1291      C1292   1.409       .  A
C1291      C1296   1.405       .  A
C1291     Br1298   1.945       .  S
C1292      C1293   1.415       .  A
C1293      C1294   1.415       .  A
C1293     Br1300   1.938       .  S
C1294      C1295   1.430       .  A
C1294     Br1299   1.938       .  S
C1295      C1296   1.434       .  A
C1296     Br1297   1.934       .  S
C1301      C1302   1.417       .  A
C1301     Br1308   1.931       .  S
C1303      C1304   1.408       .  A
C1303     Br1310   1.943       .  S
C1304      C1305   1.410       .  A
C1304     Br1309   1.935       .  S
C1305      C1306   1.406       .  A
C1306     Br1307   1.923       .  S
C1311      C1316   1.408       .  A
C1311     Br1318   1.928   1_565  S
C1312      C1313   1.404       .  A
C1313     Br1320   1.932       .  S
C1314      C1315   1.430       .  A
C1314     Br1319   1.933       .  S
C1315      C1316   1.423       .  A
C1316     Br1317   1.932       .  S
