geometry optimzed in LAMMPS
_audit_creation_date              2020-11-30 
_audit_creation_method            'lammps2cif' 
_symmetry_space_group_name_H-M    'P1' 
_symmetry_Int_Tables_number       1 
_symmetry_cell_setting            triclinic 
loop_ 
_symmetry_equiv_pos_as_xyz 
  x,y,z 
_cell_length_a                    45.31444888 
_cell_length_b                    45.20101497772418 
_cell_length_c                    26.09093253401313 
_cell_angle_alpha                 89.98663872825036 
_cell_angle_beta                  89.86333042785634 
_cell_angle_gamma                 89.31996705487902 
loop_ 
_atom_site_label 
_atom_site_type_symbol 
_atom_site_fract_x 
_atom_site_fract_y 
_atom_site_fract_z 
_atom_site_charge 
O1          O  0.82466620  0.62629930  0.94760046    -0.57700
C2          C  0.91397197  0.61808754  0.90482545     0.74900
O3          O  0.88374884  0.67774617  0.03239335    -0.58900
C4          C  0.81046904  0.62971945  0.98922052     0.74900
C5          C  0.88080074  0.58419844  0.06471884     0.77300
Cd6        Cd  0.87361368  0.63001623  0.98814559     1.37500
O7          O  0.88722136  0.61015329  0.90269358    -0.57700
O8          O  0.86834276  0.57959398  0.02214619    -0.56500
C9          C  0.87912481  0.69344333  0.99276295     0.77200
O10         O  0.89285200  0.60929418  0.06991537    -0.58900
O11         O  0.92243419  0.62892149  0.94703331    -0.57300
O12         O  0.82538500  0.63359171  0.02939103    -0.57300
O13         O  0.87294228  0.67986604  0.95200413    -0.56500
O14         O  0.88300094  0.74110796  0.95352729    -0.57700
C15         C  0.88362217  0.83229121  0.91594254     0.74900
O16         O  0.82376253  0.79611656  0.03283340    -0.58900
C17         C  0.87928838  0.72588770  0.99382858     0.74900
C18         C  0.91332822  0.80497729  0.07668296     0.77300
Cd19       Cd  0.87339706  0.78956076  0.99517357     1.37500
O20         O  0.89532866  0.80663416  0.91377569    -0.57700
O21         O  0.92217225  0.79520693  0.03376512    -0.56500
C22         C  0.81018058  0.79246685  0.99085070     0.77200
O23         O  0.88576616  0.80993233  0.08059283    -0.58900
O24         O  0.86941407  0.83855865  0.95642485    -0.57300
O25         O  0.87416724  0.74000719  0.03467899    -0.57300
O26         O  0.82572798  0.78770664  0.95144862    -0.56500
O27         O  0.76413614  0.79563284  0.94611902    -0.57700
C28         C  0.67399510  0.80176259  0.90381062     0.74900
O29         O  0.70828416  0.74148126  0.02858880    -0.58900
C30         C  0.77793505  0.79275489  0.98812301     0.74900
C31         C  0.69947273  0.83096847  0.06570407     0.77300
Cd32       Cd  0.71461853  0.78963739  0.98562763     1.37500
O33         O  0.70053420  0.81038345  0.90090248    -0.57700
O34         O  0.71196262  0.83897787  0.02454663    -0.56500
C35         C  0.71059069  0.72623622  0.98797869     0.77200
O36         O  0.69177088  0.80410030  0.06805372    -0.58900
O37         O  0.66619083  0.79029658  0.94590106    -0.57300
O38         O  0.76257355  0.78933280  0.02798120    -0.57300
O39         O  0.71402087  0.74022157  0.94657656    -0.56500
O40         O  0.69475542  0.61185550  0.91073426    -0.57700
C41         C  0.71056949  0.69388281  0.98900294     0.74900
O42         O  0.70007304  0.61240343  0.07914483    -0.58900
C43         C  0.70621333  0.58617248  0.91486871     0.74900
C44         C  0.77824011  0.62951687  0.99105958     0.77300
Cd45       Cd  0.71503747  0.63056023  0.99273779     1.37500
O46         O  0.70570355  0.67850435  0.94926696    -0.57700
O47         O  0.76316672  0.63503973  0.95151271    -0.56500
C48         C  0.67320372  0.62031947  0.07455647     0.77200
O49         O  0.76418792  0.62410476  0.03211620    -0.58900
O50         O  0.71645413  0.68002829  0.02978264    -0.57300
O51         O  0.71938339  0.58055645  0.95659014    -0.57300
O52         O  0.66557800  0.63005306  0.03096491    -0.56500
C53         C  0.69187240  0.46781963  0.59100853    -0.02400
C54         C  0.88792519  0.46050189  0.38675389    -0.02400
C55         C  0.55000845  0.60820235  0.39848405    -0.02400
C56         C  0.55053933  0.81005745  0.57969681    -0.02400
C57         C  0.03152054  0.59745615  0.57709511    -0.02400
C58         C  0.03799311  0.80394152  0.40395920    -0.02400
C59         C  0.69680803  0.94678357  0.40012962    -0.02400
C60         C  0.89681935  0.94925819  0.58786374    -0.02400
O61         O  0.19375021  0.30257269  0.92853529    -0.57700
C62         C  0.20847894  0.21740555  0.00223291     0.74900
O63         O  0.26606780  0.28352695  0.04773986    -0.58900
C64         C  0.20796761  0.32660274  0.93087723     0.74900
C65         C  0.17537909  0.29814515  0.08719462     0.77300
Cd66       Cd  0.21659503  0.28092200  0.00685131     1.37500
O67         O  0.20570067  0.23313097  0.96217427    -0.57700
O68         O  0.16701753  0.29052791  0.04292434    -0.56500
C69         C  0.28042003  0.28045693  0.00616046     0.77200
O70         O  0.20310370  0.29951728  0.09368646    -0.58900
O71         O  0.21392163  0.23098601  0.04330925    -0.57300
O72         O  0.22487999  0.32979678  0.96893124    -0.57300
O73         O  0.26544176  0.27786856  0.96567239    -0.56500
O74         O  0.18984916  0.10863670  0.08621163    -0.57700
C75         C  0.20710407  0.18489964  0.00149110     0.74900
O76         O  0.26254179  0.11697799  0.96416132    -0.58900
C77         C  0.19661901  0.08130535  0.08445713     0.74900
C78         C  0.17433028  0.10223803  0.91702179     0.77300
Cd79       Cd  0.21176808  0.12067844  0.00124594     1.37500
O80         O  0.20503968  0.16991371  0.04234123    -0.57700
O81         O  0.16385922  0.11412996  0.95723903    -0.56500
C82         C  0.27563552  0.11547062  0.00697725     0.77200
O83         O  0.20196995  0.09732210  0.91694648    -0.58900
O84         O  0.20948755  0.17039075  0.96035749    -0.57300
O85         O  0.20756175  0.07214620  0.04254946    -0.57300
O86         O  0.25943286  0.11532973  0.04627216    -0.56500
O87         O  0.39047371  0.09779805  0.93465468    -0.57700
C88         C  0.37983984  0.17885084  0.01296559     0.74900
O89         O  0.32117340  0.10790971  0.05243796    -0.58900
C90         C  0.38094214  0.07164036  0.93989972     0.74900
C91         C  0.41251814  0.10364938  0.09941348     0.77300
Cd92       Cd  0.37166818  0.11590189  0.01727528     1.37500
O93         O  0.38467900  0.16273126  0.97398124    -0.57700
O94         O  0.42122080  0.10545155  0.05334745    -0.56500
C95         C  0.30797427  0.11486008  0.01117648     0.77200
O96         O  0.38481326  0.10440742  0.10663684    -0.58900
O97         O  0.37223395  0.16586730  0.05362264    -0.57300
O98         O  0.37003902  0.06535960  0.98328647    -0.57300
O99         O  0.32401915  0.12206969  0.97371483    -0.56500
O100        O  0.39980425  0.29405131  0.08228157    -0.57700
C101        C  0.38113371  0.21115782  0.01061218     0.74900
O102        O  0.32745181  0.28475466  0.96432345    -0.58900
C103        C  0.38740396  0.31934798  0.07904047     0.74900
C104        C  0.41849008  0.28471387  0.92206950     0.77300
Cd105      Cd  0.37654897  0.27457935  0.00358612     1.37500
O106        O  0.38292324  0.22708630  0.05047822    -0.57700
O107        O  0.42635948  0.28435902  0.96861606    -0.56500
C108        C  0.31284659  0.27924507  0.00476567     0.77200
O109        O  0.39098802  0.28314467  0.91355325    -0.58900
O110        O  0.37892199  0.22448960  0.96834878    -0.57300
O111        O  0.37213846  0.32436456  0.03929895    -0.57300
O112        O  0.32753888  0.27200574  0.04396499    -0.56500
C113        C  0.19831109  0.44488479  0.60026752    -0.02400
C114        C  0.39760555  0.44288441  0.40346429    -0.02400
C115        C  0.53168340  0.09905410  0.42489810    -0.02400
C116        C  0.53976382  0.30523678  0.59825486    -0.02400
C117        C  0.19215241  0.95132460  0.40263393    -0.02400
C118        C  0.38654100  0.96443899  0.60472899    -0.02400
C119        C  0.05502763  0.10306540  0.58622289    -0.02400
C120        C  0.05531874  0.30898097  0.41221582    -0.02400
C121        C  0.05220000  0.13374711  0.55837795    -0.19800
C122        C  0.06043860  0.13915933  0.50624392     0.36500
C123        C  0.05869738  0.16784982  0.48592394    -0.25700
C124        C  0.04833025  0.19189030  0.51481017     0.02900
C125        C  0.03664794  0.18630847  0.56410151     0.27700
C126        C  0.03742984  0.15722050  0.58404217    -0.24900
N127        N  0.06887644  0.11579537  0.47195736    -0.82300
H128        H  0.06551252  0.17133709  0.44654290     0.13500
C129        C  0.05005346  0.22233292  0.49199761     0.02900
N130        N  0.02497871  0.21021485  0.59458621    -0.80800
H131        H  0.02850315  0.15324297  0.62194407     0.18300
C132        C  0.02538473  0.24134178  0.49201610    -0.25700
C133        C  0.02624457  0.26965669  0.46936957     0.36400
C134        C  0.05163760  0.27866686  0.44095588    -0.19700
C135        C  0.07677187  0.25985353  0.44415056    -0.24900
C136        C  0.07639374  0.23234703  0.46926914     0.27700
H137        H  0.00516787  0.23439131  0.51040781     0.13500
N138        N  0.00179777  0.28927233  0.47863406    -0.82200
H139        H  0.09703979  0.26646962  0.42584958     0.18300
N140        N  0.10287095  0.21453583  0.47185669    -0.80800
H141        H  0.98259242  0.27910596  0.46570024     0.34000
H142        H  0.99976923  0.29232948  0.51821320     0.38500
H143        H  0.12033982  0.22491582  0.45309730     0.33900
H144        H  0.10882847  0.21280023  0.51044168     0.30600
H145        H  0.01730148  0.20240163  0.62984193     0.33900
H146        H  0.04237819  0.22445661  0.60264340     0.30600
H147        H  0.08976694  0.12045533  0.45709174     0.38500
H148        H  0.05391725  0.11550525  0.44151198     0.34000
C149        C  0.16886924  0.97345546  0.42622392    -0.19800
C150        C  0.13990584  0.96668264  0.44368252     0.36500
C151        C  0.12348648  0.98791425  0.47079083    -0.25700
C152        C  0.13116929  0.01789100  0.47114798     0.02900
C153        C  0.15769039  0.02594432  0.44643553     0.27700
C154        C  0.17683915  0.00371915  0.42794090    -0.24900
N155        N  0.12550044  0.93962307  0.43136759    -0.82300
H156        H  0.10385828  0.98052196  0.49026879     0.13500
C157        C  0.11138239  0.03999981  0.49776783     0.02900
N158        N  0.16505450  0.05652653  0.43923535    -0.80800
H159        H  0.19819685  0.01025688  0.41356917     0.18300
C160        C  0.12351043  0.06404117  0.52407483    -0.25700
C161        C  0.10561331  0.08524625  0.54864799     0.36400
C162        C  0.07469919  0.08069806  0.55451616    -0.19700
C163        C  0.06335290  0.05477312  0.53185460    -0.24900
C164        C  0.08044859  0.03669174  0.49965651     0.27700
H165        H  0.14714635  0.06687889  0.52560695     0.13500
N166        N  0.11918799  0.11146435  0.56759641    -0.82200
H167        H  0.04103090  0.04782637  0.53733397     0.18300
N168        N  0.06581094  0.01560988  0.46782485    -0.80800
H169        H  0.12928583  0.12221749  0.53683483     0.34000
H170        H  0.13562687  0.10521788  0.59364818     0.38500
H171        H  0.05367938  0.00150252  0.49141213     0.33900
H172        H  0.05091433  0.02710602  0.44437474     0.30600
H173        H  0.18524822  0.05852489  0.42014159     0.33900
H174        H  0.14902155  0.06593262  0.41530467     0.30600
H175        H  0.10681790  0.94469803  0.40947654     0.38500
H176        H  0.11799490  0.93022633  0.46551399     0.34000
C177        C  0.35768927  0.96040154  0.57264645    -0.19800
C178        C  0.33620764  0.93932132  0.58754354     0.36500
C179        C  0.31046857  0.93559523  0.55846412    -0.25700
C180        C  0.30499483  0.95273117  0.51479141     0.02900
C181        C  0.32514068  0.97471235  0.50073040     0.27700
C182        C  0.35085609  0.97859537  0.52989983    -0.24900
N183        N  0.34052104  0.92146082  0.63234050    -0.82300
H184        H  0.29444553  0.91935533  0.57041912     0.13500
C185        C  0.27650592  0.94979049  0.48743070     0.02900
N186        N  0.31872006  0.99395458  0.45816387    -0.80800
H187        H  0.36489975  0.99670868  0.51941149     0.18300
C188        C  0.25119214  0.96120992  0.51108367    -0.25700
C189        C  0.22371650  0.96119842  0.48650940     0.36400
C190        C  0.22135820  0.95103301  0.43475448    -0.19700
C191        C  0.24662201  0.93686118  0.41361508    -0.24900
C192        C  0.27403059  0.93644912  0.43867729     0.27700
H193        H  0.25270878  0.97012175  0.54956548     0.13500
N194        N  0.19844126  0.97008297  0.51603791    -0.82200
H195        H  0.24526528  0.92669847  0.37615595     0.18300
N196        N  0.29854803  0.92189617  0.41377874    -0.80800
H197        H  0.19703974  0.95623792  0.54804581     0.34000
H198        H  0.20165497  0.99167880  0.52908695     0.38500
H199        H  0.30326048  0.93366158  0.38029916     0.33900
H200        H  0.31752572  0.92217090  0.43634951     0.30600
H201        H  0.33518102  0.00978293  0.45387929     0.33900
H202        H  0.31923212  0.98116128  0.42483035     0.30600
H203        H  0.33992421  0.89922009  0.62143329     0.38500
H204        H  0.32288425  0.92549869  0.65738533     0.34000
C205        C  0.51040367  0.08469536  0.46481697    -0.19800
C206        C  0.48005971  0.09337418  0.46758498     0.36500
C207        C  0.46011557  0.07669485  0.49631444    -0.25700
C208        C  0.46969340  0.05180673  0.52329036     0.02900
C209        C  0.49998571  0.04544679  0.52722772     0.27700
C210        C  0.52014225  0.06261797  0.49956747    -0.24900
N211        N  0.46880625  0.11756035  0.43792685    -0.82300
H212        H  0.43676809  0.08215430  0.49494005     0.13500
C213        C  0.44773349  0.03118063  0.54372046     0.02900
N214        N  0.50998152  0.02078525  0.55764904    -0.80800
H215        H  0.54338110  0.05780967  0.50421761     0.18300
C216        C  0.44006069  0.00670071  0.51422868    -0.25700
C217        C  0.42017463  0.98569825  0.53265428     0.36400
C218        C  0.40702066  0.98907165  0.58203850    -0.19700
C219        C  0.41598588  0.01388781  0.61155273    -0.24900
C220        C  0.43546928  0.03509297  0.59248006     0.27700
H221        H  0.44991050  0.00366977  0.47665008     0.13500
N222        N  0.41380946  0.96062232  0.50115464    -0.82200
H223        H  0.40947897  0.01659166  0.65092300     0.18300
N224        N  0.44316785  0.06044805  0.62274755    -0.80800
H225        H  0.40548728  0.96827925  0.46617689     0.34000
H226        H  0.43362485  0.94928134  0.49383143     0.38500
H227        H  0.43169964  0.06055194  0.65755327     0.33900
H228        H  0.46557840  0.05864822  0.63173843     0.30600
H229        H  0.53294887  0.01858373  0.55568039     0.33900
H230        H  0.50475932  0.02538290  0.59588602     0.30600
H231        H  0.45253989  0.10962793  0.41329145     0.38500
H232        H  0.45884302  0.13273420  0.46298745     0.34000
C233        C  0.53466730  0.13141589  0.44676865    -0.19800
C234        C  0.52179876  0.15801719  0.42611962     0.36500
C235        C  0.52505814  0.18517977  0.45180766    -0.25700
C236        C  0.53948633  0.18714957  0.49890351     0.02900
C237        C  0.55086792  0.16118965  0.52140940     0.27700
C238        C  0.54844237  0.13400364  0.49539739    -0.24900
N239        N  0.50368914  0.15816566  0.38126988    -0.82300
H240        H  0.51527360  0.20501041  0.43534734     0.13500
C241        C  0.54053244  0.21634772  0.52550493     0.02900
N242        N  0.56446342  0.16242177  0.57107567    -0.80800
H243        H  0.55736080  0.11429728  0.51352915     0.18300
C244        C  0.51438814  0.22869969  0.54503710    -0.25700
C245        C  0.51386446  0.25672192  0.56848645     0.36400
C246        C  0.54013621  0.27370342  0.57253273    -0.19700
C247        C  0.56660748  0.26010229  0.55465574    -0.24900
C248        C  0.56687561  0.23237212  0.53034320     0.27700
H249        H  0.49402044  0.21651009  0.54177219     0.13500
N250        N  0.48626175  0.26801228  0.58749759    -0.82200
H251        H  0.58763084  0.27076530  0.55903105     0.18300
N252        N  0.59416309  0.22144016  0.50944161    -0.80800
H253        H  0.47840447  0.25327420  0.61509968     0.34000
H254        H  0.47117894  0.26858822  0.55723442     0.38500
H255        H  0.59949848  0.20132754  0.52699006     0.33900
H256        H  0.59122244  0.21767835  0.47025454     0.30600
H257        H  0.54824404  0.16891712  0.59746818     0.33900
H258        H  0.57188020  0.14142456  0.58235036     0.30600
H259        H  0.48294370  0.16692264  0.39089168     0.38500
H260        H  0.51312155  0.17249977  0.35453150     0.34000
C261        C  0.42105041  0.42575209  0.43672315    -0.19800
C262        C  0.44928758  0.41819043  0.41570543     0.36500
C263        C  0.46908625  0.40051216  0.44328397    -0.25700
C264        C  0.46244234  0.39104978  0.49269470     0.02900
C265        C  0.43646924  0.40125962  0.51685769     0.27700
C266        C  0.41612905  0.41861834  0.48890127    -0.24900
N267        N  0.45751645  0.42723566  0.36511337    -0.82300
H268        H  0.48968375  0.39359842  0.42546832     0.13500
C269        C  0.48264076  0.36960254  0.51753905     0.02900
N270        N  0.43077553  0.39376494  0.56949024    -0.80800
H271        H  0.39656821  0.42651945  0.50852564     0.18300
C272        C  0.49945810  0.37845800  0.55928456    -0.25700
C273        C  0.51850746  0.35851848  0.58402902     0.36400
C274        C  0.52080478  0.32839824  0.56732519    -0.19700
C275        C  0.50553916  0.32080325  0.52205062    -0.24900
C276        C  0.48589091  0.34070137  0.49820965     0.27700
H277        H  0.49750983  0.40098450  0.57325269     0.13500
N278        N  0.53434292  0.36864889  0.62801553    -0.82200
H279        H  0.50845513  0.29933964  0.50468647     0.18300
N280        N  0.46894478  0.33162653  0.45451292    -0.80800
H281        H  0.51912014  0.37672621  0.65491250     0.34000
H282        H  0.54769672  0.38619113  0.61663350     0.38500
H283        H  0.47379185  0.30964256  0.44491331     0.33900
H284        H  0.44666794  0.33234844  0.46505626     0.30600
H285        H  0.41087235  0.40330200  0.58187675     0.33900
H286        H  0.42819189  0.37084230  0.57155112     0.30600
H287        H  0.46234691  0.40833780  0.34339718     0.38500
H288        H  0.47677080  0.43966005  0.36779017     0.34000
C289        C  0.08083149  0.32454632  0.44279637    -0.19800
C290        C  0.11056749  0.32765954  0.42461885     0.36500
C291        C  0.13047213  0.34537843  0.45115801    -0.25700
C292        C  0.12293667  0.35832882  0.49776851     0.02900
C293        C  0.09577874  0.35128380  0.52082522     0.27700
C294        C  0.07552140  0.33363283  0.49397412    -0.24900
N295        N  0.12178450  0.31177865  0.38114856    -0.82300
H296        H  0.15207906  0.34925329  0.43470191     0.13500
C297        C  0.14300986  0.38052795  0.52010799     0.02900
N298        N  0.08869214  0.36260033  0.57088638    -0.80800
H299        H  0.05450576  0.32865420  0.51166840     0.18300
C300        C  0.13297394  0.40973439  0.52404910    -0.25700
C301        C  0.15083196  0.43198683  0.54410321     0.36400
C302        C  0.17916940  0.42459268  0.56472370    -0.19700
C303        C  0.19046224  0.39589834  0.55329381    -0.24900
C304        C  0.17251493  0.37371970  0.53262102     0.27700
H305        H  0.11112504  0.41552805  0.51013772     0.13500
N306        N  0.14032976  0.46186520  0.54001907    -0.82200
H307        H  0.21262388  0.38997918  0.56532100     0.18300
N308        N  0.18383469  0.34412809  0.52590975    -0.80800
H309        H  0.11979187  0.46339679  0.55826879     0.34000
H310        H  0.13715642  0.46672534  0.50122572     0.38500
H311        H  0.20597828  0.34278018  0.53693751     0.33900
H312        H  0.17213681  0.33033796  0.55067976     0.30600
H313        H  0.06782147  0.35553130  0.58243734     0.33900
H314        H  0.10387464  0.35342562  0.59667741     0.30600
H315        H  0.13916255  0.29809094  0.39333406     0.38500
H316        H  0.13047052  0.32716737  0.35546720     0.34000
C317        C  0.22889053  0.44740599  0.57149949    -0.19800
C318        C  0.23035433  0.45504380  0.51834569     0.36500
C319        C  0.25738445  0.45411999  0.49159341    -0.25700
C320        C  0.28378225  0.44629699  0.51600923     0.02900
C321        C  0.28322058  0.43990635  0.56879996     0.27700
C322        C  0.25596380  0.43904052  0.59499738    -0.24900
N323        N  0.20426584  0.46355192  0.49083352    -0.82300
H324        H  0.25771823  0.45959524  0.45114862     0.13500
C325        C  0.31187799  0.44548203  0.48600463     0.02900
N326        N  0.31043954  0.43573885  0.59639858    -0.80800
H327        H  0.25659410  0.43131888  0.63392551     0.18300
C328        C  0.32440905  0.47201984  0.46966212    -0.25700
C329        C  0.35088004  0.47244866  0.44119883     0.36400
C330        C  0.36689946  0.44558759  0.43153232    -0.19700
C331        C  0.35270046  0.41893732  0.44537568    -0.24900
C332        C  0.32537428  0.41856695  0.47123772     0.27700
H333        H  0.31309448  0.49272913  0.47803977     0.13500
N334        N  0.35994860  0.50015364  0.42018444    -0.82200
H335        H  0.36319138  0.39799794  0.43591057     0.18300
N336        N  0.31053571  0.39100305  0.47969849    -0.80800
H337        H  0.36252290  0.51511627  0.45036732     0.34000
H338        H  0.34306844  0.50821185  0.39655811     0.38500
H339        H  0.32282477  0.37336963  0.46439904     0.33900
H340        H  0.30910334  0.38714453  0.51900844     0.30600
H341        H  0.30635278  0.43274393  0.63550167     0.33900
H342        H  0.32082038  0.41640449  0.58358589     0.30600
H343        H  0.20148690  0.44866273  0.46061415     0.38500
H344        H  0.20751964  0.48451912  0.47501308     0.34000
C345        C  0.44030799  0.28511461  0.87962822    -0.19800
C346        C  0.46627093  0.30206595  0.88183626     0.36500
C347        C  0.48616262  0.30140656  0.84020718    -0.25700
C348        C  0.48067230  0.28399807  0.79684162     0.02900
C349        C  0.45550325  0.26594866  0.79574210     0.27700
C350        C  0.43548159  0.26689229  0.83695770    -0.24900
N351        N  0.47173438  0.32076442  0.92524619    -0.82300
H352        H  0.50522349  0.31566050  0.84035527     0.13500
C353        C  0.49707592  0.29004907  0.74884598     0.02900
N354        N  0.45017951  0.24707320  0.75240171    -0.80800
H355        H  0.41596257  0.25328549  0.83581807     0.18300
C356        C  0.52315380  0.27473262  0.73600523    -0.25700
C357        C  0.53763171  0.27994409  0.68884684     0.36400
C358        C  0.52579331  0.30073503  0.65305388    -0.19700
C359        C  0.49882890  0.31498575  0.66702896    -0.24900
C360        C  0.48530788  0.31084289  0.71453661     0.27700
H361        H  0.53218025  0.25852010  0.76243375     0.13500
N362        N  0.56411020  0.26366420  0.67708846    -0.82200
H363        H  0.48670597  0.32874709  0.64069556     0.18300
N364        N  0.45931338  0.32778676  0.72811285    -0.80800
H365        H  0.55922784  0.24111945  0.67778131     0.34000
H366        H  0.57950128  0.26771612  0.70596393     0.38500
H367        H  0.45425673  0.34344779  0.69987548     0.33900
H368        H  0.44145577  0.31341516  0.72967343     0.30600
H369        H  0.43096711  0.23488960  0.75799684     0.33900
H370        H  0.44637588  0.26041881  0.72033877     0.30600
H371        H  0.45522447  0.33711923  0.92595477     0.38500
H372        H  0.49178728  0.33170828  0.92088310     0.34000
C373        C  0.38839548  0.34118337  0.12119864    -0.19800
C374        C  0.41458977  0.34771325  0.14766135     0.36500
C375        C  0.41324383  0.36655410  0.19055838    -0.25700
C376        C  0.38612046  0.37784168  0.20904068     0.02900
C377        C  0.36014320  0.37224935  0.18115321     0.27700
C378        C  0.36170386  0.35446889  0.13698002    -0.24900
N379        N  0.44241680  0.33562641  0.13062083    -0.82300
H380        H  0.43334588  0.37149194  0.21112035     0.13500
C381        C  0.38535546  0.39299092  0.25988957     0.02900
N382        N  0.33212871  0.38352115  0.19884984    -0.80800
H383        H  0.34160845  0.34952349  0.11639511     0.18300
C384        C  0.37111529  0.42054247  0.26665540    -0.25700
C385        C  0.37255728  0.43570098  0.31384949     0.36400
C386        C  0.39097132  0.42470032  0.35365410    -0.19700
C387        C  0.40056108  0.39483535  0.34880214    -0.24900
C388        C  0.39842630  0.37925048  0.30269305     0.27700
H389        H  0.35931403  0.43068048  0.23503924     0.13500
N390        N  0.35611166  0.46267843  0.32052708    -0.82200
H391        H  0.40982706  0.38300339  0.38100699     0.18300
N392        N  0.40940989  0.34930132  0.29925258    -0.80800
H393        H  0.33372996  0.45781770  0.31668021     0.34000
H394        H  0.36162327  0.47727250  0.29106631     0.38500
H395        H  0.41872896  0.34243669  0.33396187     0.33900
H396        H  0.39137654  0.33563134  0.29251812     0.30600
H397        H  0.31525274  0.37751038  0.17379987     0.33900
H398        H  0.32755508  0.37340112  0.23397358     0.30600
H399        H  0.44223539  0.31285909  0.13752496     0.38500
H400        H  0.45967835  0.34402563  0.15257905     0.34000
C401        C  0.38106890  0.05034871  0.89631847    -0.19800
C402        C  0.36460000  0.02380920  0.89717684     0.36500
C403        C  0.36257709  0.00657937  0.85236590    -0.25700
C404        C  0.37620460  0.01544303  0.80678213     0.02900
C405        C  0.39363825  0.04104901  0.80636676     0.27700
C406        C  0.39584545  0.05821985  0.85098065    -0.24900
N407        N  0.34922323  0.01478984  0.94273188    -0.82300
H408        H  0.34946098  0.98668822  0.85242042     0.13500
C409        C  0.37194901  0.99826007  0.75903435     0.02900
N410        N  0.40876900  0.04965309  0.76029433    -0.80800
H411        H  0.40872300  0.07825076  0.84989938     0.18300
C412        C  0.35744233  0.01170600  0.71772438    -0.25700
C413        C  0.35895698  0.99932038  0.66852218     0.36400
C414        C  0.37599520  0.97309424  0.65997076    -0.19700
C415        C  0.38471961  0.95681784  0.70384122    -0.24900
C416        C  0.38431566  0.96981144  0.75282712     0.27700
H417        H  0.34667471  0.03303983  0.72294498     0.13500
N418        N  0.34593525  0.01520925  0.62662210    -0.82200
H419        H  0.39405633  0.93484496  0.70010081     0.18300
N420        N  0.39786314  0.95494466  0.79559680    -0.80800
H421        H  0.32329066  0.01729870  0.63370131     0.34000
H422        H  0.35481807  0.03644816  0.62560180     0.38500
H423        H  0.40610107  0.93419526  0.78456263     0.33900
H424        H  0.41608795  0.96735571  0.80674620     0.30600
H425        H  0.42052641  0.06912095  0.76615742     0.33900
H426        H  0.42436090  0.03312073  0.75179835     0.30600
H427        H  0.33173362  0.02972844  0.94846186     0.32900
H428        H  0.33964517  0.99407672  0.93750031     0.34000
C429        C  0.51877504  0.09633102  0.36940358    -0.19800
C430        C  0.49747622  0.07479493  0.35412368     0.36500
C431        C  0.48515027  0.07591674  0.30505035    -0.25700
C432        C  0.49386092  0.09699361  0.26941051     0.02900
C433        C  0.51758036  0.11560598  0.28101479     0.27700
C434        C  0.53108333  0.11357379  0.32965112    -0.24900
N435        N  0.48864732  0.05094808  0.38675306    -0.82300
H436        H  0.46785392  0.06056586  0.29515003     0.13500
C437        C  0.47551554  0.10075289  0.22292195     0.02900
N438        N  0.52671171  0.13756660  0.24466854    -0.80800
H439        H  0.54947943  0.12780254  0.33827417     0.18300
C440        C  0.45019185  0.11866333  0.22660612    -0.25700
C441        C  0.42915214  0.11949199  0.18716965     0.36400
C442        C  0.43372455  0.10220771  0.14262226    -0.19700
C443        C  0.45971470  0.08506299  0.13814705    -0.24900
C444        C  0.48048267  0.08380985  0.17833262     0.27700
H445        H  0.44640568  0.13138078  0.26127831     0.13500
N446        N  0.40361524  0.13851228  0.19168726    -0.82200
H447        H  0.46346811  0.07214024  0.10372090     0.18300
N448        N  0.50605049  0.06479769  0.17478868    -0.80800
H449        H  0.40487777  0.15144877  0.22481382     0.34000
H450        H  0.38525363  0.12502240  0.19658799     0.38500
H451        H  0.50623901  0.05348084  0.13984107     0.33900
H452        H  0.52468324  0.07819700  0.17486061     0.30600
H453        H  0.54379130  0.15021319  0.25977606     0.33900
H454        H  0.53535175  0.12653420  0.21270955     0.30600
H455        H  0.49391504  0.03100028  0.36840252     0.38500
H456        H  0.46569638  0.05191067  0.39096292     0.34000
C457        C  0.07123329  0.10344741  0.63960168    -0.19800
C458        C  0.08669653  0.12776812  0.66169042     0.36500
C459        C  0.10196025  0.12412527  0.70818951    -0.25700
C460        C  0.10350930  0.09683832  0.73323717     0.02900
C461        C  0.08935075  0.07240209  0.71174570     0.27700
C462        C  0.07381410  0.07583146  0.66548009    -0.24900
N463        N  0.08950291  0.15558949  0.63611828    -0.82300
H464        H  0.11368804  0.14274841  0.72412288     0.13500
C465        C  0.12156749  0.09410982  0.78048171     0.02900
N466        N  0.09100706  0.04410038  0.73677088    -0.80800
H467        H  0.06341862  0.05656603  0.64908605     0.18300
C468        C  0.10776180  0.09434449  0.82860175    -0.25700
C469        C  0.12447497  0.09516719  0.87411438     0.36400
C470        C  0.15567891  0.09618072  0.87123008    -0.19700
C471        C  0.16933315  0.09403543  0.82287263    -0.24900
C472        C  0.15259384  0.09299757  0.77755684     0.27700
H473        H  0.08386889  0.09463865  0.83054432     0.13500
N474        N  0.10984576  0.09531480  0.92305222    -0.82200
H475        H  0.19318494  0.09441599  0.82018281     0.18300
N476        N  0.16692652  0.09166309  0.72838013    -0.80800
H477        H  0.08694666  0.09473446  0.91838003     0.34000
H478        H  0.11586914  0.07577063  0.94197631     0.38500
H479        H  0.18986041  0.09123013  0.73270215     0.33900
H480        H  0.16125968  0.07160671  0.71127090     0.30600
H481        H  0.07911134  0.02834980  0.71630311     0.33900
H482        H  0.11307504  0.03708836  0.73614606     0.30600
H483        H  0.11191089  0.15964777  0.63005046     0.38500
H484        H  0.08124641  0.17213788  0.66042054     0.34000
C485        C  0.19591027  0.96447498  0.34732197    -0.19800
C486        C  0.17133781  0.96567581  0.31324137     0.36500
C487        C  0.17210669  0.98321641  0.26890282    -0.25700
C488        C  0.19659877  0.00038603  0.25723937     0.02900
C489        C  0.22163950  0.99873625  0.28884944     0.27700
C490        C  0.22109942  0.98105705  0.33332923    -0.24900
N491        N  0.14476043  0.95019064  0.32475723    -0.82300
H492        H  0.15283624  0.98436500  0.24441192     0.13500
C493        C  0.19521753  0.02090730  0.21281767     0.02900
N494        N  0.24722240  0.01586980  0.27646498    -0.80800
H495        H  0.23978355  0.98250032  0.35864563     0.18300
C496        C  0.19193502  0.05140125  0.22138496    -0.25700
C497        C  0.19121025  0.07164577  0.18026806     0.36400
C498        C  0.19360908  0.06103119  0.12928275    -0.19700
C499        C  0.19607827  0.03029902  0.12110752    -0.24900
C500        C  0.19697076  0.01020478  0.16229223     0.27700
H501        H  0.19039590  0.05942892  0.26045312     0.13500
N502        N  0.18886926  0.10284877  0.19042314    -0.82200
H503        H  0.19794844  0.02188443  0.08234859     0.18300
N504        N  0.20008208  0.97896500  0.15313066    -0.80800
H505        H  0.18622592  0.10674088  0.22968151     0.34000
H506        H  0.20895868  0.11233506  0.18009532     0.38500
H507        H  0.20097136  0.97461460  0.11379974     0.33900
H508        H  0.22038421  0.97212406  0.16829397     0.30600
H509        H  0.26381649  0.01251520  0.30370064     0.33900
H510        H  0.25560775  0.00796090  0.24163400     0.30600
H511        H  0.14028030  0.93592608  0.29429205     0.38500
H512        H  0.12749551  0.96569728  0.32699856     0.34000
C513        C  0.15398614  0.30349139  0.12983483    -0.19800
C514        C  0.12332026  0.30778910  0.12115022     0.36500
C515        C  0.10367011  0.30897212  0.16320073    -0.25700
C516        C  0.11405183  0.30623713  0.21351106     0.02900
C517        C  0.14455035  0.30314640  0.22215807     0.27700
C518        C  0.16419845  0.30190488  0.18057028    -0.24900
N519        N  0.11219572  0.31089701  0.06986693    -0.82300
H520        H  0.08019689  0.31187493  0.15679387     0.13500
C521        C  0.09319757  0.30685610  0.25743803     0.02900
N522        N  0.15562761  0.30095903  0.27337206    -0.80800
H523        H  0.18752168  0.29873570  0.18815756     0.18300
C524        C  0.08375582  0.28021162  0.27895490    -0.25700
C525        C  0.06853241  0.27964768  0.32604576     0.36400
C526        C  0.06445308  0.30635605  0.35441108    -0.19700
C527        C  0.07018837  0.33321960  0.32814920    -0.24900
C528        C  0.08474597  0.33369731  0.28053890     0.27700
H529        H  0.08874544  0.25957143  0.25947061     0.13500
N530        N  0.05681781  0.25208801  0.34320113    -0.82200
H531        H  0.06570064  0.35409139  0.34716818     0.18300
N532        N  0.09219226  0.36132482  0.25676657    -0.80800
H533        H  0.07417240  0.23667707  0.34532896     0.34000
H534        H  0.04204735  0.24460681  0.31548584     0.38500
H535        H  0.08407714  0.37910907  0.27843514     0.33900
H536        H  0.11518534  0.36297436  0.25680259     0.30600
H537        H  0.16724258  0.28093712  0.27678148     0.33900
H538        H  0.17047144  0.31817829  0.27905622     0.30600
H539        H  0.12075388  0.33043652  0.05474113     0.38500
H540        H  0.08924009  0.31354424  0.07021655     0.34000
C541        C  0.20120931  0.42966454  0.65477657    -0.19800
C542        C  0.21584446  0.44361022  0.69645137     0.36500
C543        C  0.21648060  0.43027514  0.74542336    -0.25700
C544        C  0.20226460  0.40335995  0.75481426     0.02900
C545        C  0.18658566  0.38998896  0.71491031     0.27700
C546        C  0.18521828  0.40367155  0.66696602    -0.24900
N547        N  0.22953102  0.47175128  0.68951852    -0.82300
H548        H  0.22804255  0.44110247  0.77636230     0.13500
C549        C  0.20419309  0.38836594  0.80561256     0.02900
N550        N  0.17193161  0.36228119  0.72319202    -0.80800
H551        H  0.17013701  0.39384292  0.64042054     0.18300
C552        C  0.17805957  0.37996308  0.83073563    -0.25700
C553        C  0.17870439  0.36014070  0.87233869     0.36400
C554        C  0.20605824  0.34938312  0.89030905    -0.19700
C555        C  0.23225501  0.35961998  0.86797216    -0.24900
C556        C  0.23160801  0.37854243  0.82510965     0.27700
H557        H  0.15700303  0.38777120  0.81609986     0.13500
N558        N  0.15175803  0.35058424  0.89595599    -0.82200
H559        H  0.25326984  0.35143167  0.88218844     0.18300
N560        N  0.25857207  0.38662978  0.79984996    -0.80800
H561        H  0.13351918  0.36042452  0.87800378     0.34000
H562        H  0.15170853  0.35819957  0.93379605     0.38500
H563        H  0.27679697  0.37755746  0.81897635     0.33900
H564        H  0.25846537  0.37716947  0.76327970     0.30600
H565        H  0.16102558  0.35534109  0.69011670     0.33900
H566        H  0.18817719  0.34626471  0.73079487     0.30600
H567        H  0.25169783  0.46972957  0.70014004     0.38500
H568        H  0.21937249  0.48686159  0.71445353     0.34000
C569        C  0.91377279  0.97940966  0.59153999    -0.19800
C570        C  0.90597026  0.00645507  0.56610544     0.36500
C571        C  0.92407309  0.03143928  0.57048386    -0.25700
C572        C  0.95116088  0.03020327  0.59605822     0.02900
C573        C  0.95987644  0.00346211  0.61961355     0.27700
C574        C  0.94118314  0.97890274  0.61769075    -0.24900
N575        N  0.88113277  0.00876037  0.53256085    -0.82300
H576        H  0.91744729  0.05175899  0.55144644     0.13500
C577        C  0.97165017  0.05587515  0.59416289     0.02900
N578        N  0.98824196  0.00096364  0.64400347    -0.80800
H579        H  0.94850993  0.95860106  0.63594034     0.18300
C580        C  0.98332119  0.06714847  0.63974648    -0.25700
C581        C  0.00767541  0.08614522  0.63911219     0.36400
C582        C  0.02229458  0.09216998  0.59187036    -0.19700
C583        C  0.00560171  0.08721588  0.54696481    -0.24900
C584        C  0.98144658  0.06784417  0.54720735     0.27700
H585        H  0.97398627  0.06048911  0.67619199     0.13500
N586        N  0.01626042  0.09998737  0.68607052    -0.82200
H587        H  0.01414164  0.09462635  0.51044109     0.18300
N588        N  0.96844120  0.05864364  0.49968707    -0.80800
H589        H  0.02029075  0.08344002  0.71328207     0.34000
H590        H  0.99841995  0.11276036  0.69924938     0.38500
H591        H  0.97815150  0.06956432  0.46872804     0.33900
H592        H  0.97321636  0.03612084  0.49491164     0.30600
H593        H  0.99136023  0.97984816  0.65959040     0.33900
H594        H  0.00437941  0.00341902  0.61564417     0.30600
H595        H  0.88876108  0.01412123  0.49590280     0.38500
H596        H  0.86760839  0.02618342  0.54526654     0.34000
C597        C  0.56220674  0.08201717  0.42063588    -0.19800
C598        C  0.59069115  0.09534806  0.41990589     0.36500
C599        C  0.61657272  0.07753498  0.41701513    -0.25700
C600        C  0.61504838  0.04673273  0.41205729     0.02900
C601        C  0.58729708  0.03361011  0.40870267     0.27700
C602        C  0.56163747  0.05106606  0.41194888    -0.24900
N603        N  0.59390184  0.12680045  0.41902100    -0.82300
H604        H  0.63799181  0.08793092  0.41757628     0.13500
C605        C  0.64209958  0.02773262  0.40934881     0.02900
N606        N  0.58508041  0.00224247  0.40204647    -0.80800
H607        H  0.54090795  0.03977671  0.40950602     0.18300
C608        C  0.65248031  0.01415780  0.45407416    -0.25700
C609        C  0.67238089  0.99006804  0.45191107     0.36400
C610        C  0.68163075  0.97828438  0.40371075    -0.19700
C611        C  0.67486325  0.99548717  0.35977245    -0.24900
C612        C  0.65451068  0.01935270  0.36193516     0.27700
H613        H  0.64360172  0.02103568  0.49085605     0.13500
N614        N  0.68122525  0.97618734  0.49883851    -0.82200
H615        H  0.68415564  0.98963332  0.32293321     0.18300
N616        N  0.64567792  0.03452022  0.31592610    -0.80800
H617        H  0.66228693  0.96956151  0.51850127     0.34000
H618        H  0.69192522  0.99194305  0.52121966     0.38500
H619        H  0.65702410  0.02594683  0.28420107     0.33900
H620        H  0.62333268  0.03025813  0.30984552     0.30600
H621        H  0.57288078  0.99380558  0.43269569     0.33900
H622        H  0.57335158  0.99833421  0.36830735     0.30600
H623        H  0.60504383  0.13250784  0.38537597     0.38500
H624        H  0.60705446  0.13285064  0.45009905     0.34000
C625        C  0.72663129  0.94999943  0.42977411    -0.19800
C626        C  0.74878670  0.96979517  0.41289949     0.36500
C627        C  0.77601007  0.97126764  0.43877231    -0.25700
C628        C  0.78159167  0.95415797  0.48261536     0.02900
C629        C  0.75893741  0.93622604  0.50229776     0.27700
C630        C  0.73178226  0.93533252  0.47699923    -0.24900
N631        N  0.74395960  0.98805060  0.36876070    -0.82300
H632        H  0.79304788  0.98564381  0.42413835     0.13500
C633        C  0.81131251  0.95456692  0.50647328     0.02900
N634        N  0.76252636  0.91835022  0.54761316    -0.80800
H635        H  0.71467052  0.92288451  0.49565041     0.18300
C636        C  0.81549238  0.96969185  0.55260373    -0.25700
C637        C  0.84260872  0.96825997  0.57860869     0.36400
C638        C  0.86686124  0.95168672  0.55802327    -0.19700
C639        C  0.86155683  0.93555830  0.51236371    -0.24900
C640        C  0.83453695  0.93740559  0.48608620     0.27700
H641        H  0.79731437  0.98225326  0.56915020     0.13500
N642        N  0.84537217  0.98368146  0.62629969    -0.82200
H643        H  0.87772322  0.92020873  0.49742352     0.18300
N644        N  0.83034264  0.92133220  0.43912944    -0.80800
H645        H  0.82970900  0.97527655  0.65176287     0.34000
H646        H  0.84033796  0.00602474  0.62016345     0.38500
H647        H  0.84969906  0.91008357  0.42849730     0.33900
H648        H  0.81442973  0.90522431  0.44591540     0.30600
H649        H  0.76023807  0.89623397  0.53672314     0.33900
H650        H  0.78355765  0.92001387  0.56336441     0.30600
H651        H  0.74580963  0.01013178  0.38009835     0.38500
H652        H  0.76068833  0.98359827  0.34211728     0.34000
C653        C  0.18265716  0.91819068  0.40251828    -0.19800
C654        C  0.18417614  0.89895720  0.35941457     0.36500
C655        C  0.16906426  0.87192979  0.36041018    -0.25700
C656        C  0.15208968  0.86361954  0.40312705     0.02900
C657        C  0.15698444  0.87912033  0.44952259     0.27700
C658        C  0.17371611  0.90513926  0.44908857    -0.24900
N659        N  0.20144005  0.90602995  0.31512949    -0.82300
H660        H  0.16932302  0.85821495  0.32638333     0.13500
C661        C  0.12722415  0.84187687  0.39714130     0.02900
N662        N  0.14347140  0.87007003  0.49658320    -0.80800
H663        H  0.17576854  0.91737566  0.48451310     0.18300
C664        C  0.11982848  0.82258908  0.43727821    -0.25700
C665        C  0.09185316  0.80945995  0.43996446     0.36400
C666        C  0.07132657  0.81294162  0.39888379    -0.19700
C667        C  0.08261040  0.82543316  0.35337986    -0.24900
C668        C  0.10854175  0.84228732  0.35350966     0.27700
H669        H  0.13487168  0.81925655  0.46893687     0.13500
N670        N  0.08387180  0.79443239  0.48619647    -0.82200
H671        H  0.06996349  0.82506137  0.31848292     0.18300
N672        N  0.11460630  0.86127718  0.31058588    -0.80800
H673        H  0.09886582  0.77698131  0.49183028     0.34000
H674        H  0.08587291  0.80914647  0.51686451     0.38500
H675        H  0.09903477  0.85854872  0.28151415     0.33900
H676        H  0.11224597  0.88313393  0.32323377     0.30600
H677        H  0.16017948  0.86640045  0.52348993     0.33900
H678        H  0.12995593  0.88725402  0.51011563     0.30600
H679        H  0.21750574  0.88945211  0.31046498     0.38500
H680        H  0.18769264  0.90559279  0.28301887     0.34000
C681        C  0.01963768  0.82555662  0.43918420    -0.19800
C682        C  0.03018509  0.85164476  0.46411969     0.36500
C683        C  0.01033801  0.87073041  0.48945988    -0.25700
C684        C  0.98008372  0.86562902  0.48952245     0.02900
C685        C  0.96903932  0.84032334  0.46562172     0.27700
C686        C  0.98872666  0.82055579  0.44160806    -0.24900
N687        N  0.06030484  0.86055831  0.46177033    -0.82300
H688        H  0.01861693  0.89045014  0.50790765     0.13500
C689        C  0.96019019  0.88711199  0.51502634     0.02900
N690        N  0.93776325  0.83530303  0.46434863    -0.80800
H691        H  0.97976194  0.80122172  0.42300777     0.18300
C692        C  0.94999503  0.91198030  0.48821509    -0.25700
C693        C  0.93072090  0.93258367  0.51142222     0.36400
C694        C  0.91977983  0.92754914  0.56184985    -0.19700
C695        C  0.93319477  0.90391696  0.58971590    -0.24900
C696        C  0.95265989  0.88357762  0.56670539     0.27700
H697        H  0.95716670  0.91550452  0.44904823     0.13500
N698        N  0.92215863  0.95853222  0.48337979    -0.82200
H699        H  0.92939275  0.90118024  0.63022567     0.18300
N700        N  0.96553580  0.85977436  0.59607212    -0.80800
H701        H  0.94123499  0.97034047  0.47471795     0.34000
H702        H  0.91265822  0.95194111  0.44879724     0.38500
H703        H  0.95834679  0.86063039  0.63415607     0.33900
H704        H  0.95789016  0.83985978  0.58107130     0.30600
H705        H  0.93313191  0.81603081  0.44387687     0.33900
H706        H  0.93062921  0.83170545  0.50192208     0.30600
H707        H  0.06815613  0.86272754  0.49922369     0.38500
H708        H  0.06124845  0.88130872  0.44414492     0.34000
C709        C  0.18217981  0.47527761  0.61075479    -0.19800
C710        C  0.18889821  0.50295199  0.58755470     0.36500
C711        C  0.16653808  0.52500629  0.58396969    -0.25700
C712        C  0.13992872  0.52283948  0.61178781     0.02900
C713        C  0.13766177  0.49928656  0.64722864     0.27700
C714        C  0.15721531  0.47513926  0.64358862    -0.24900
N715        N  0.21792228  0.50913783  0.56855425    -0.82300
H716        H  0.17003901  0.54342221  0.55840998     0.13500
C717        C  0.11352602  0.54273431  0.60112922     0.02900
N718        N  0.11467747  0.49926892  0.68537603    -0.80800
H719        H  0.15186858  0.45551876  0.66521971     0.18300
C720        C  0.08540803  0.53026964  0.60350123    -0.25700
C721        C  0.05952930  0.54702078  0.59920664     0.36400
C722        C  0.06045486  0.57760426  0.58388236    -0.19700
C723        C  0.08913257  0.58911455  0.57565724    -0.24900
C724        C  0.11523296  0.57296871  0.58762787     0.27700
H725        H  0.08310444  0.50674771  0.60996964     0.13500
N726        N  0.03302750  0.53151022  0.61165793    -0.82200
H727        H  0.09194094  0.61111748  0.56109764     0.18300
N728        N  0.14321143  0.58760376  0.58713150    -0.80800
H729        H  0.02180260  0.52534614  0.57862556     0.34000
H730        H  0.01981605  0.54361029  0.63696964     0.38500
H731        H  0.14068201  0.60985733  0.57693216     0.33900
H732        H  0.15132983  0.58732539  0.62461058     0.30600
H733        H  0.11604501  0.48029894  0.70822926     0.33900
H734        H  0.11819968  0.51730520  0.70957908     0.30600
H735        H  0.23224405  0.50883272  0.59990643     0.38500
H736        H  0.21880475  0.53045872  0.55312174     0.34000
C737        C  0.03766232  0.62702673  0.54617419    -0.19800
C738        C  0.05285953  0.65125899  0.56895294     0.36500
C739        C  0.05478625  0.67869319  0.54356438    -0.25700
C740        C  0.04156710  0.68352205  0.49578638     0.02900
C741        C  0.02648966  0.66020389  0.47242186     0.27700
C742        C  0.02460915  0.63266100  0.49742722    -0.24900
N743        N  0.06531066  0.64868575  0.61925053    -0.82300
H744        H  0.06598250  0.69678238  0.56224541     0.13500
C745        C  0.04097003  0.71387301  0.47307769     0.02900
N746        N  0.01191886  0.66498012  0.42412346    -0.80800
H747        H  0.01105265  0.61657592  0.47886611     0.18300
C748        C  0.05535562  0.71963462  0.42657133    -0.25700
C749        C  0.05458629  0.74804933  0.40415287     0.36400
C750        C  0.03820757  0.77164869  0.42741084    -0.19700
C751        C  0.02465219  0.76532591  0.47535759    -0.24900
C752        C  0.02552136  0.73699608  0.49762741     0.27700
H753        H  0.06757499  0.70197774  0.40770645     0.13500
N754        N  0.07068830  0.75289039  0.35762530    -0.82200
H755        H  0.01392246  0.78243517  0.49751763     0.18300
N756        N  0.01074077  0.73160470  0.54554724    -0.80800
H757        H  0.09293728  0.74804410  0.36460364     0.34000
H758        H  0.06316137  0.73802081  0.33003409     0.38500
H759        H  0.00057676  0.75091775  0.55930982     0.33900
H760        H  0.99385187  0.71657529  0.53857485     0.30600
H761        H  0.00187952  0.64562380  0.41139869     0.33900
H762        H  0.99496864  0.68051074  0.43007448     0.30600
H763        H  0.08769935  0.65389024  0.61705105     0.38500
H764        H  0.05499512  0.66440812  0.64285144     0.34000
C765        C  0.40650948  0.93579902  0.60422981    -0.19800
C766        C  0.43445835  0.93535873  0.62945502     0.36500
C767        C  0.45368208  0.91107557  0.62415431    -0.25700
C768        C  0.44661446  0.88711654  0.59300376     0.02900
C769        C  0.41944103  0.88688250  0.56770812     0.27700
C770        C  0.39971463  0.91085933  0.57341364    -0.24900
N771        N  0.44407571  0.96007712  0.65920608    -0.82300
H772        H  0.47503577  0.91155584  0.64279470     0.13500
C773        C  0.46993501  0.86491941  0.58191155     0.02900
N774        N  0.41244619  0.86298628  0.53399675    -0.80800
H775        H  0.38000237  0.91024199  0.55041467     0.18300
C776        C  0.47032208  0.83760151  0.60708869    -0.25700
C777        C  0.49526788  0.81881630  0.60417321     0.36400
C778        C  0.52098153  0.82809477  0.57739713    -0.19700
C779        C  0.51811263  0.85365816  0.54627061    -0.24900
C780        C  0.49329954  0.87232856  0.54918653     0.27700
H781        H  0.45178087  0.83142651  0.63094588     0.13500
N782        N  0.49505617  0.79126299  0.63127876    -0.82200
H783        H  0.53532035  0.85977047  0.51978128     0.18300
N784        N  0.49203255  0.89939202  0.52019658    -0.80800
H785        H  0.47795927  0.77853019  0.61647995     0.34000
H786        H  0.49028136  0.79544143  0.66982660     0.38500
H787        H  0.51124137  0.90200455  0.49846184     0.33900
H788        H  0.47460803  0.89770022  0.49420153     0.30600
H789        H  0.39268782  0.85369689  0.54656900     0.33900
H790        H  0.40892252  0.87173964  0.49738765     0.30600
H791        H  0.44893161  0.95263564  0.69622520     0.38500
H792        H  0.46357420  0.96797595  0.64294589     0.34000
C793        C  0.57625508  0.82671147  0.55185540    -0.19800
C794        C  0.58487235  0.85543150  0.56845190     0.36500
C795        C  0.60681296  0.87075281  0.54258013    -0.25700
C796        C  0.62016680  0.85921787  0.49866301     0.02900
C797        C  0.61435737  0.82987359  0.48448907     0.27700
C798        C  0.59346789  0.81353692  0.51230772    -0.24900
N799        N  0.57060707  0.87000491  0.61051014    -0.82300
H800        H  0.61232533  0.89281465  0.55548382     0.13500
C801        C  0.63849284  0.87946479  0.46758724     0.02900
N802        N  0.62883451  0.81685240  0.44104205    -0.80800
H803        H  0.59067672  0.79067215  0.50167762     0.18300
C804        C  0.66756563  0.87198506  0.45461638    -0.25700
C805        C  0.68610308  0.89272630  0.43124260     0.36400
C806        C  0.67639281  0.92265361  0.42432069    -0.19700
C807        C  0.64605752  0.92862595  0.43299594    -0.24900
C808        C  0.62720676  0.90751023  0.45384693     0.27700
H809        H  0.67620612  0.85013720  0.46352604     0.13500
N810        N  0.71502846  0.88331279  0.41563415    -0.82200
H811        H  0.63622460  0.94953093  0.42203081     0.18300
N812        N  0.59640341  0.91443728  0.46128841    -0.80800
H813        H  0.71275480  0.86627688  0.38888175     0.34000
H814        H  0.72602854  0.87458552  0.44752638     0.38500
H815        H  0.59149611  0.93606041  0.44958585     0.33900
H816        H  0.58433681  0.90039013  0.43762899     0.30600
H817        H  0.61263533  0.81038234  0.41500958     0.33900
H818        H  0.64007899  0.79783108  0.45340566     0.30600
H819        H  0.56151667  0.88999152  0.59742951     0.38500
H820        H  0.58663089  0.87492437  0.63790959     0.34000
C821        C  0.52101641  0.58964237  0.39345448    -0.19800
C822        C  0.49456902  0.59364756  0.42280299     0.36500
C823        C  0.47159745  0.57301505  0.41923957    -0.25700
C824        C  0.47490079  0.54660118  0.39157519     0.02900
C825        C  0.50142011  0.54152112  0.36450734     0.27700
C826        C  0.52336248  0.56312395  0.36463672    -0.24900
N827        N  0.49124283  0.61690658  0.45958480    -0.82300
H828        H  0.45145910  0.57704128  0.44073294     0.13500
C829        C  0.45148860  0.52352550  0.39358407     0.02900
N830        N  0.50662098  0.51384621  0.33856261    -0.80800
H831        H  0.54339585  0.55854652  0.34343951     0.18300
C832        C  0.44238151  0.51004193  0.34808675    -0.25700
C833        C  0.42486254  0.48459788  0.34812137     0.36400
C834        C  0.41319246  0.47340475  0.39521033    -0.19700
C835        C  0.42071173  0.48904602  0.44045188    -0.24900
C836        C  0.44018166  0.51301342  0.44042830     0.27700
H837        H  0.45072483  0.51814197  0.31179602     0.13500
N838        N  0.42173749  0.46945114  0.30038789    -0.82200
H839        H  0.41256493  0.48117736  0.47699387     0.18300
N840        N  0.44955265  0.52568791  0.48816888    -0.80800
H841        H  0.44275094  0.46369216  0.28676852     0.34000
H842        H  0.41235547  0.48416542  0.27395373     0.38500
H843        H  0.43908466  0.51550393  0.51914436     0.33900
H844        H  0.47212569  0.52120755  0.49211282     0.30600
H845        H  0.52721337  0.51360635  0.32039274     0.33900
H846        H  0.50735574  0.49719715  0.36638386     0.30600
H847        H  0.47226603  0.62916985  0.45037788     0.38500
H848        H  0.48805972  0.60741790  0.49570300     0.34000
C849        C  0.54636643  0.63830506  0.42813253    -0.19800
C850        C  0.56582655  0.64836119  0.46739252     0.36500
C851        C  0.56085216  0.67573283  0.49133748    -0.25700
C852        C  0.53735769  0.69446733  0.47771788     0.02900
C853        C  0.51924661  0.68606176  0.43631398     0.27700
C854        C  0.52480018  0.65892922  0.41078898    -0.24900
N855        N  0.59206583  0.63234952  0.48134541    -0.82300
H856        H  0.57617912  0.68274815  0.52064710     0.13500
C857        C  0.53422311  0.72353967  0.50529706     0.02900
N858        N  0.49501251  0.70476089  0.42075323    -0.80800
H859        H  0.51105846  0.65297940  0.37856824     0.18300
C860        C  0.53263143  0.74995766  0.47709620    -0.25700
C861        C  0.53574959  0.77771773  0.50082120     0.36400
C862        C  0.54330908  0.77964482  0.55366155    -0.19700
C863        C  0.54198780  0.75311594  0.58232394    -0.24900
C864        C  0.53665852  0.72558961  0.55939483     0.27700
H865        H  0.53016597  0.74918912  0.43585219     0.13500
N866        N  0.53260445  0.80389298  0.47025131    -0.82200
H867        H  0.54421978  0.75345804  0.62355507     0.18300
N868        N  0.53388618  0.70024106  0.59242038    -0.80800
H869        H  0.54749059  0.80250875  0.43963345     0.34000
H870        H  0.51127731  0.80429276  0.45506148     0.38500
H871        H  0.51700624  0.70492946  0.61869622     0.33900
H872        H  0.52656329  0.68185709  0.57212305     0.30600
H873        H  0.48383772  0.69540322  0.38983596     0.33900
H874        H  0.48001701  0.70576253  0.45123865     0.30600
H875        H  0.61025516  0.64581380  0.47442751     0.38500
H876        H  0.59122942  0.62806329  0.52071977     0.34000
C877        C  0.90433893  0.42976423  0.38224029    -0.19800
C878        C  0.90232221  0.40637939  0.41914015     0.36500
C879        C  0.92401043  0.38375128  0.42076902    -0.25700
C880        C  0.94811691  0.38357996  0.38726509     0.02900
C881        C  0.94961670  0.40515787  0.34873312     0.27700
C882        C  0.92840701  0.42803394  0.34741950    -0.24900
N883        N  0.87989021  0.40617111  0.45782602    -0.82300
H884        H  0.92295389  0.36714649  0.45068045     0.13500
C885        C  0.97390340  0.36381982  0.39741938     0.02900
N886        N  0.97331325  0.40432112  0.31192323    -0.80800
H887        H  0.93161730  0.44562271  0.32004858     0.18300
C888        C  0.97584766  0.33583767  0.37486922    -0.25700
C889        C  0.00125507  0.31790691  0.38078120     0.36400
C890        C  0.02593860  0.32793911  0.40970644    -0.19700
C891        C  0.02360262  0.35683300  0.43068903    -0.24900
C892        C  0.99773042  0.37415130  0.42650251     0.27700
H893        H  0.95766833  0.32797251  0.35187418     0.13500
N894        N  0.00204227  0.28950343  0.35651068    -0.82200
H895        H  0.04210637  0.36723578  0.44860224     0.18300
N896        N  0.99564054  0.40251023  0.45146465    -0.80800
H897        H  0.99933175  0.29266681  0.31709168     0.34000
H898        H  0.98416217  0.27727280  0.36985131     0.38500
H899        H  0.01459805  0.40659633  0.47296939     0.33900
H900        H  0.99462349  0.41887254  0.42321484     0.30600
H901        H  0.97090772  0.42143413  0.28523624     0.33900
H902        H  0.99306568  0.40812808  0.33127531     0.30600
H903        H  0.89003170  0.40621650  0.49377933     0.38500
H904        H  0.86818071  0.38647761  0.45435615     0.34000
C905        C  0.91263324  0.47974452  0.41166608    -0.19800
C906        C  0.93027380  0.50079816  0.38499478     0.36500
C907        C  0.94980360  0.51874978  0.41198916    -0.25700
C908        C  0.95559487  0.51410028  0.46386355     0.02900
C909        C  0.94162041  0.49053330  0.48931211     0.27700
C910        C  0.92070479  0.47359359  0.46299919    -0.24900
N911        N  0.93034760  0.50314820  0.33032894    -0.82300
H912        H  0.96116123  0.53617337  0.39163649     0.13500
C913        C  0.97505613  0.53505788  0.49147705     0.02900
N914        N  0.94830549  0.48422420  0.54207372    -0.80800
H915        H  0.90949361  0.45627724  0.48359552     0.18300
C916        C  0.96387426  0.54857934  0.53558434    -0.25700
C917        C  0.98059576  0.56811593  0.56488061     0.36400
C918        C  0.00906264  0.57745847  0.54713836    -0.19700
C919        C  0.01948518  0.56423404  0.50104455    -0.24900
C920        C  0.00365954  0.54264684  0.47438574     0.27700
H921        H  0.94197271  0.54295691  0.54899007     0.13500
N922        N  0.96883473  0.57577586  0.61407016    -0.82200
H923        H  0.04124539  0.56976371  0.48688865     0.18300
N924        N  0.01794335  0.52835237  0.43153228    -0.80800
H925        H  0.96586126  0.55637219  0.63520978     0.34000
H926        H  0.94811581  0.58576406  0.60891753     0.38500
H927        H  0.03791022  0.51937283  0.44467497     0.33900
H928        H  0.00606153  0.51019384  0.41876753     0.30600
H929        H  0.93590504  0.46641425  0.55533715     0.33900
H930        H  0.97047069  0.47763739  0.54391557     0.30600
H931        H  0.92578884  0.52519780  0.32101686     0.38500
H932        H  0.95163492  0.49815264  0.31712136     0.34000
C933        C  0.67505685  0.43751672  0.59686565    -0.19800
C934        C  0.64819591  0.43598713  0.62542044     0.36500
C935        C  0.63186789  0.40986730  0.62703645    -0.25700
C936        C  0.64097448  0.38426884  0.60103286     0.02900
C937        C  0.66750003  0.38511040  0.57228851     0.27700
C938        C  0.68343485  0.41164236  0.56929352    -0.24900
N939        N  0.63670778  0.46132261  0.65208670    -0.82300
H940        H  0.61114987  0.40994716  0.64791878     0.13500
C941        C  0.62042791  0.35857982  0.60100435     0.02900
N942        N  0.67902674  0.35967377  0.54539377    -0.80800
H943        H  0.70209040  0.41153719  0.54360575     0.18300
C944        C  0.60874545  0.34864833  0.55457381    -0.25700
C945        C  0.58493733  0.32904960  0.55330456     0.36400
C946        C  0.57126626  0.31939762  0.59965647    -0.19700
C947        C  0.58483637  0.32789131  0.64617534    -0.24900
C948        C  0.60922518  0.34695853  0.64716466     0.27700
H949        H  0.61711741  0.35742849  0.51879146     0.13500
N950        N  0.57337774  0.32060381  0.50442141    -0.82200
H951        H  0.57540706  0.32184315  0.68254717     0.18300
N952        N  0.62182696  0.35580728  0.69522795    -0.80800
H953        H  0.59029217  0.31017603  0.48364416     0.34000
H954        H  0.56714954  0.33980964  0.48465948     0.38500
H955        H  0.61099454  0.34568850  0.72587927     0.33900
H956        H  0.64365238  0.34805627  0.69589774     0.30600
H957        H  0.70015258  0.35526074  0.55974158     0.33900
H958        H  0.66685513  0.34077943  0.55335269     0.30600
H959        H  0.63412386  0.45576477  0.69073045     0.38500
H960        H  0.61583200  0.46638002  0.63723863     0.34000
C961        C  0.66778424  0.48885008  0.56704841    -0.19800
C962        C  0.65519185  0.51492393  0.59008416     0.36500
C963        C  0.63495003  0.53246035  0.56270961    -0.25700
C964        C  0.62420768  0.52370941  0.51505455     0.02900
C965        C  0.63336500  0.49624259  0.49471160     0.27700
C966        C  0.65509812  0.47953480  0.52022160    -0.24900
N967        N  0.66067970  0.52315300  0.64211422    -0.82300
H968        H  0.62727093  0.55310979  0.57944870     0.13500
C969        C  0.60463807  0.54415534  0.48568365     0.02900
N970        N  0.62060343  0.48543739  0.44800986    -0.80800
H971        H  0.66276901  0.45909020  0.50280391     0.18300
C972        C  0.61199558  0.55051657  0.43494770    -0.25700
C973        C  0.59449705  0.56921010  0.40473356     0.36400
C974        C  0.57057695  0.58557824  0.42732165    -0.19700
C975        C  0.56256169  0.57771635  0.47807662    -0.24900
C976        C  0.57906587  0.55720232  0.50712412     0.27700
H977        H  0.63117230  0.53995925  0.41764306     0.13500
N978        N  0.60013700  0.56903662  0.35072439    -0.82200
H979        H  0.54333449  0.58807799  0.49540516     0.18300
N980        N  0.56977787  0.54939942  0.55803638    -0.80800
H981        H  0.62212261  0.57497269  0.34483143     0.34000
H982        H  0.59770744  0.54741804  0.33723946     0.38500
H983        H  0.55047221  0.56092275  0.56806857     0.33900
H984        H  0.56450517  0.52694257  0.55773380     0.30600
H985        H  0.62973114  0.46486475  0.43810589     0.33900
H986        H  0.59815914  0.48204411  0.45492588     0.30600
H987        H  0.64065189  0.52310155  0.66210230     0.38500
H988        H  0.66854089  0.54481402  0.64249678     0.34000
C989        C  0.72023865  0.46462368  0.55596781    -0.19800
C990        C  0.72671631  0.48210576  0.51148978     0.36500
C991        C  0.75320774  0.47762214  0.48426866    -0.25700
C992        C  0.77464682  0.45724111  0.50031779     0.02900
C993        C  0.76938900  0.44059113  0.54518299     0.27700
C994        C  0.74282276  0.44483078  0.57243868    -0.24900
N995        N  0.70825706  0.50630252  0.49547619    -0.82300
H996        H  0.75770741  0.49138840  0.45117262     0.13500
C997        C  0.80353933  0.45687092  0.47286566     0.02900
N998        N  0.79065016  0.41970620  0.56503311    -0.80800
H999        H  0.73958603  0.43216840  0.60723880     0.18300
C1000       C  0.82403821  0.47853019  0.48501547    -0.25700
C1001       C  0.85079218  0.48104585  0.45817817     0.36400
C1002       C  0.85872326  0.45992833  0.41938434    -0.19700
C1003       C  0.83673033  0.43940717  0.40538675    -0.24900
C1004       C  0.80965772  0.43734421  0.43212757     0.27700
H1005       H  0.81864767  0.49459707  0.51455036     0.13500
N1006       N  0.86825004  0.50656261  0.46852361    -0.82200
H1007       H  0.84111230  0.42435047  0.37392645     0.18300
N1008       N  0.78813389  0.41586688  0.41749142    -0.80800
H1009       H  0.87362484  0.50649754  0.50749067     0.34000
H1010       H  0.85538671  0.52547508  0.46141249     0.38500
H1011       H  0.79579988  0.40334621  0.38640239     0.33900
H1012       H  0.78569194  0.40117935  0.44812921     0.30600
H1013       H  0.78105977  0.39879230  0.56388748     0.33900
H1014       H  0.80952019  0.41845186  0.54209450     0.30600
H1015       H  0.70214282  0.50270874  0.45737254     0.38500
H1016       H  0.72054532  0.52572492  0.49673088     0.34000
C1017       C  0.56342156  0.61767285  0.34568591    -0.19800
C1018       C  0.54969369  0.61436096  0.29701239     0.36500
C1019       C  0.56686337  0.61574544  0.25198247    -0.25700
C1020       C  0.59693364  0.62258786  0.25388061     0.02900
C1021       C  0.60893797  0.63216291  0.30069154     0.27700
C1022       C  0.59192678  0.63018664  0.34570953    -0.24900
N1023       N  0.51844332  0.61090078  0.29238158    -0.82300
H1024       H  0.55668782  0.61113717  0.21534046     0.13500
C1025       C  0.61532906  0.62053101  0.20659315     0.02900
N1026       N  0.63837596  0.64365969  0.30258726    -0.80800
H1027       H  0.60223932  0.63560051  0.38170406     0.18300
C1028       C  0.61010794  0.64020734  0.16607093    -0.25700
C1029       C  0.62826613  0.64009186  0.12213454     0.36400
C1030       C  0.65209450  0.61955389  0.11840106    -0.19700
C1031       C  0.65660069  0.59920314  0.15839567    -0.24900
C1032       C  0.63818428  0.59923994  0.20187717     0.27700
H1033       H  0.59229954  0.65630649  0.16945018     0.13500
N1034       N  0.62313390  0.66146746  0.08221842    -0.82200
H1035       H  0.67446036  0.58310770  0.15588043     0.18300
N1036       N  0.64248810  0.57734608  0.24093658    -0.80800
H1037       H  0.60446588  0.67445491  0.09041188     0.34000
H1038       H  0.64106456  0.67581893  0.08183917     0.38500
H1039       H  0.64011940  0.55650778  0.22416775     0.33900
H1040       H  0.66416814  0.57884626  0.25422023     0.30600
H1041       H  0.64323726  0.65114277  0.33949737     0.33900
H1042       H  0.65316871  0.62631417  0.29517479     0.30600
H1043       H  0.51011464  0.62881194  0.27133549     0.38500
H1044       H  0.51453545  0.59168548  0.27125884     0.34000
C1045       C  0.70595626  0.56430755  0.87227476    -0.19800
C1046       C  0.68377256  0.56458139  0.83434201     0.36500
C1047       C  0.68634477  0.54541194  0.79198509    -0.25700
C1048       C  0.71047806  0.52588373  0.78688928     0.02900
C1049       C  0.73229185  0.52501399  0.82516447     0.27700
C1050       C  0.72972228  0.54410028  0.86765266    -0.24900
N1051       N  0.65874059  0.58423458  0.83894022    -0.82300
H1052       H  0.66955767  0.54580671  0.76245505     0.13500
C1053       C  0.71264547  0.50728475  0.74011377     0.02900
N1054       N  0.75736109  0.50545876  0.81989004    -0.80800
H1055       H  0.74692703  0.54390165  0.89642280     0.18300
C1056       C  0.72339827  0.52014013  0.69516281    -0.25700
C1057       C  0.71937497  0.50655824  0.64729260     0.36400
C1058       C  0.70363263  0.47949297  0.64370468    -0.19700
C1059       C  0.69851778  0.46428878  0.69030181    -0.24900
C1060       C  0.70153301  0.47825107  0.73804656     0.27700
H1061       H  0.73312117  0.54191865  0.69673297     0.13500
N1062       N  0.72893924  0.52182589  0.60229747    -0.82200
H1063       H  0.69038379  0.44195003  0.69053158     0.18300
N1064       N  0.69168806  0.46276533  0.78299562    -0.80800
H1065       H  0.75175670  0.52463775  0.60482875     0.34000
H1066       H  0.71894132  0.54278450  0.60164754     0.38500
H1067       H  0.70513995  0.44397813  0.78724309     0.33900
H1068       H  0.69429153  0.47533944  0.81616216     0.30600
H1069       H  0.77172739  0.50793468  0.85085278     0.33900
H1070       H  0.74971994  0.48375302  0.82148584     0.30600
H1071       H  0.64686217  0.57784779  0.87143804     0.38500
H1072       H  0.64457768  0.58179358  0.80768166     0.34000
C1073       C  0.69599759  0.85159487  0.10976337    -0.19800
C1074       C  0.67654185  0.84586285  0.15091210     0.36500
C1075       C  0.67714742  0.86404024  0.19473447    -0.25700
C1076       C  0.69615690  0.88833550  0.19780908     0.02900
C1077       C  0.71485870  0.89462500  0.15605943     0.27700
C1078       C  0.71456560  0.87625881  0.11257517    -0.24900
N1079       N  0.65636446  0.82161002  0.14825112    -0.82300
H1080       H  0.66282161  0.85919313  0.22689991     0.13500
C1081       C  0.69703416  0.90627953  0.24576658     0.02900
N1082       N  0.73439172  0.91941850  0.15834328    -0.80800
H1083       H  0.72962590  0.88077770  0.08130393     0.18300
C1084       C  0.72363111  0.90788261  0.27293411    -0.25700
C1085       C  0.72547675  0.92196582  0.32095451     0.36400
C1086       C  0.69982107  0.93538013  0.34339711    -0.19700
C1087       C  0.67330761  0.93368062  0.31468424    -0.24900
C1088       C  0.67167397  0.92025458  0.26648100     0.27700
H1089       H  0.74314688  0.89691543  0.25762631     0.13500
N1090       N  0.75315608  0.92045322  0.34716076    -0.82200
H1091       H  0.65301143  0.94276784  0.33037957     0.18300
N1092       N  0.64377185  0.92125376  0.24019895    -0.80800
H1093       H  0.75925039  0.89821496  0.35149312     0.34000
H1094       H  0.76906813  0.93040080  0.32398272     0.38500
H1095       H  0.63784678  0.94352690  0.23562765     0.33900
H1096       H  0.64545905  0.91282630  0.20311063     0.30600
H1097       H  0.74697056  0.92083923  0.12480628     0.33900
H1098       H  0.72135847  0.93863422  0.16007930     0.30600
H1099       H  0.64156281  0.82613648  0.11849760     0.38500
H1100       H  0.64378835  0.82032930  0.18181473     0.34000
C1101       C  0.65344108  0.80371720  0.85971933    -0.19800
C1102       C  0.63019781  0.78326837  0.85396647     0.36500
C1103       C  0.61236961  0.78452326  0.81009815    -0.25700
C1104       C  0.61726322  0.80554768  0.77188776     0.02900
C1105       C  0.63985637  0.82642756  0.77777407     0.27700
C1106       C  0.65791245  0.82517505  0.82157327    -0.24900
N1107       N  0.62525442  0.76070804  0.89180050    -0.82300
H1108       H  0.59487388  0.76864227  0.80508829     0.13500
C1109       C  0.59879131  0.80489306  0.72538113     0.02900
N1110       N  0.64415257  0.84888560  0.73952086    -0.80800
H1111       H  0.67555344  0.84094467  0.82591297     0.18300
C1112       C  0.57266821  0.82144241  0.72403062    -0.25700
C1113       C  0.55498361  0.82253229  0.67991938     0.36400
C1114       C  0.56348164  0.80607473  0.63508308    -0.19700
C1115       C  0.58954178  0.78847919  0.63870759    -0.24900
C1116       C  0.60703565  0.78766869  0.68293452     0.27700
H1117       H  0.56637336  0.83452523  0.75721423     0.13500
N1118       N  0.52997592  0.84218400  0.68098324    -0.82200
H1119       H  0.59708092  0.77615869  0.60546850     0.18300
N1120       N  0.63335211  0.76960183  0.68474274    -0.80800
H1121       H  0.53710404  0.86345684  0.69007723     0.34000
H1122       H  0.51601954  0.83548909  0.71065692     0.38500
H1123       H  0.63607038  0.75778306  0.65057790     0.33900
H1124       H  0.65140083  0.78368724  0.68756234     0.30600
H1125       H  0.66136560  0.86282119  0.75004215     0.33900
H1126       H  0.65074850  0.83840367  0.70560829     0.30600
H1127       H  0.64345443  0.74627331  0.89098371     0.38500
H1128       H  0.60687372  0.74807536  0.88230128     0.34000
C1129       C  0.88482699  0.85344516  0.87254165    -0.19800
C1130       C  0.90719488  0.85180839  0.83485345     0.36500
C1131       C  0.90557884  0.87049082  0.79186758    -0.25700
C1132       C  0.88224127  0.89082077  0.78595737     0.02900
C1133       C  0.86014738  0.89295131  0.82377090     0.27700
C1134       C  0.86176680  0.87436601  0.86693775    -0.24900
N1135       N  0.93140485  0.83122328  0.84025044    -0.82300
H1136       H  0.92248240  0.86908554  0.76247120     0.13500
C1137       C  0.88098586  0.90871290  0.73854714     0.02900
N1138       N  0.83572006  0.91318521  0.81725880    -0.80800
H1139       H  0.84437452  0.87553469  0.89546266     0.18300
C1140       C  0.87093306  0.89511825  0.69393703    -0.25700
C1141       C  0.87413026  0.90866216  0.64600676     0.36400
C1142       C  0.88803992  0.93671086  0.64178835    -0.19700
C1143       C  0.89441821  0.95169335  0.68804020    -0.24900
C1144       C  0.89196978  0.93778205  0.73590660     0.27700
H1145       H  0.86191699  0.87303410  0.69598301     0.13500
N1146       N  0.86522677  0.89274619  0.60124962    -0.82200
H1147       H  0.90230302  0.97412704  0.68782408     0.18300
N1148       N  0.90212255  0.95341631  0.78040464    -0.80800
H1149       H  0.84265303  0.88854970  0.60435194     0.34000
H1150       H  0.87649403  0.87242391  0.60053515     0.38500
H1151       H  0.88851070  0.97205292  0.78517800     0.33900
H1152       H  0.90012782  0.94084018  0.81373222     0.30600
H1153       H  0.82099171  0.91153284  0.84800825     0.33900
H1154       H  0.84399146  0.93466005  0.81819967     0.30600
H1155       H  0.94348047  0.83756967  0.87244455     0.38500
H1156       H  0.94572531  0.83262089  0.80888046     0.34000
C1157       C  0.02112511  0.80553932  0.35062112    -0.19800
C1158       C  0.01392352  0.83311783  0.32506384     0.36500
C1159       C  0.99774331  0.83330263  0.27940748    -0.25700
C1160       C  0.98686821  0.80740422  0.25813334     0.02900
C1161       C  0.99264066  0.78030629  0.28254018     0.27700
C1162       C  0.00915429  0.77965479  0.32818783    -0.24900
N1163       N  0.02029552  0.86184423  0.34539558    -0.82300
H1164       H  0.99264196  0.85428974  0.26111754     0.13500
C1165       C  0.96859405  0.80904127  0.21099185     0.02900
N1166       N  0.98112813  0.75345591  0.26128471    -0.80800
H1167       H  0.01122436  0.75847717  0.34663565     0.18300
C1168       C  0.98000653  0.79756941  0.16516794    -0.25700
C1169       C  0.96310424  0.79746007  0.12001850     0.36400
C1170       C  0.93375300  0.80876557  0.12092183    -0.19700
C1171       C  0.92277702  0.82115989  0.16674393    -0.24900
C1172       C  0.93984228  0.82130987  0.21178169     0.27700
H1173       H  0.00221888  0.78841277  0.16483523     0.13500
N1174       N  0.97547241  0.78503893  0.07389920    -0.82200
H1175       H  0.90043812  0.82994142  0.16795093     0.18300
N1176       N  0.92784031  0.83314450  0.25864513    -0.80800
H1177       H  0.99657717  0.77630265  0.08065971     0.34000
H1178       H  0.97816283  0.80238957  0.04785990     0.38500
H1179       H  0.90645680  0.84139318  0.25278999     0.33900
H1180       H  0.92604781  0.81566063  0.28467651     0.30600
H1181       H  0.98755398  0.73513626  0.28322181     0.33900
H1182       H  0.95810428  0.75479382  0.26336699     0.30600
H1183       H  0.04205634  0.86362256  0.35731875     0.38500
H1184       H  0.00565774  0.86696731  0.37504812     0.34000
C1185       C  0.93402154  0.61651538  0.85971302    -0.19800
C1186       C  0.92997152  0.59589744  0.81970296     0.36500
C1187       C  0.94852037  0.59677039  0.77638145    -0.25700
C1188       C  0.97083156  0.61787135  0.77211156     0.02900
C1189       C  0.97483354  0.63858921  0.81159069     0.27700
C1190       C  0.95655009  0.63756576  0.85521566    -0.24900
N1191       N  0.90723499  0.57408397  0.82325217    -0.82300
H1192       H  0.94567550  0.58087282  0.74573962     0.13500
C1193       C  0.99009928  0.61734072  0.72617536     0.02900
N1194       N  0.99706063  0.66084655  0.80671254    -0.80800
H1195       H  0.95943729  0.65378362  0.88530751     0.18300
C1196       C  0.98090729  0.63259558  0.68231870    -0.25700
C1197       C  0.99503472  0.62809775  0.63491329     0.36400
C1198       C  0.01890126  0.60727517  0.63057144    -0.19700
C1199       C  0.03053164  0.59583927  0.67703044    -0.24900
C1200       C  0.01610107  0.59990475  0.72409775     0.27700
H1201       H  0.96148917  0.64679577  0.68417238     0.13500
N1202       N  0.98332881  0.64282584  0.59063132    -0.82200
H1203       H  0.05026829  0.58227385  0.67760590     0.18300
N1204       N  0.02796639  0.58502073  0.76839296    -0.80800
H1205       H  0.98466712  0.66563273  0.59671058     0.34000
H1206       H  0.96104664  0.63751286  0.58700387     0.38500
H1207       H  0.04893374  0.59357710  0.77517365     0.33900
H1208       H  0.01552840  0.58934579  0.80129803     0.30600
H1209       H  0.99682002  0.67478329  0.83869100     0.33900
H1210       H  0.01763177  0.65013256  0.80643962     0.30600
H1211       H  0.91255275  0.56007805  0.85384890     0.38500
H1212       H  0.90700541  0.56088136  0.79035324     0.34000
C1213       C  0.88014592  0.56204908  0.10710084    -0.19800
C1214       C  0.85944532  0.53876695  0.10842680     0.36500
C1215       C  0.85753660  0.52036552  0.15190335    -0.25700
C1216       C  0.87572040  0.52483209  0.19453282     0.02900
C1217       C  0.89717794  0.54718999  0.19223369     0.27700
C1218       C  0.89904249  0.56561102  0.14907471    -0.24900
N1219       N  0.83954458  0.53430313  0.06665027    -0.82300
H1220       H  0.84113347  0.50312083  0.15297432     0.13500
C1221       C  0.87192453  0.50670227  0.24185048     0.02900
N1222       N  0.91734999  0.55119372  0.23369680    -0.80800
H1223       H  0.91525477  0.58304165  0.14877284     0.18300
C1224       C  0.87552836  0.47582455  0.24056935    -0.25700
C1225       C  0.87709671  0.45917519  0.28632551     0.36400
C1226       C  0.87743503  0.47400931  0.33448937    -0.19700
C1227       C  0.86778211  0.50390205  0.33451437    -0.24900
C1228       C  0.86547450  0.52027730  0.28905384     0.27700
H1229       H  0.87785486  0.46464541  0.20402749     0.13500
N1230       N  0.87726991  0.42754584  0.28319276    -0.82200
H1231       H  0.86496436  0.51562490  0.37024517     0.18300
N1232       N  0.85764315  0.55104695  0.29116864    -0.80800
H1233       H  0.89483702  0.42093109  0.25960911     0.34000
H1234       H  0.85776084  0.42113586  0.26524717     0.38500
H1235       H  0.83691109  0.55295536  0.30860174     0.33900
H1236       H  0.87289763  0.56169309  0.31460746     0.30600
H1237       H  0.93879754  0.54853187  0.21943314     0.33900
H1238       H  0.91502492  0.57291769  0.24699331     0.30600
H1239       H  0.81797570  0.53624280  0.08069490     0.38500
H1240       H  0.84261164  0.51269611  0.05318913     0.34000
loop_ 
_geom_bond_atom_site_label_1 
_geom_bond_atom_site_label_2 
_geom_bond_distance 
_geom_bond_site_symmetry_2 
_ccdc_geom_bond_type 
O1            C4   1.269       .  A
O1           Cd6   2.467       .  S
C2           O11   1.267       .  A
C2            O7   1.270       .  A
C2         C1185   1.486       .  S
O3            C9   1.270   1_554  A
O3           Cd6   2.495   1_554  S
C4           O12   1.262   1_556  A
C4           C44   1.461       .  S
C5           O10   1.272       .  A
C5            O8   1.266       .  A
C5         C1213   1.492       .  S
Cd6          O13   2.442       .  S
Cd6          O12   2.437   1_556  S
Cd6          O11   2.456       .  S
Cd6           O7   2.478       .  S
Cd6          O10   2.485   1_556  S
Cd6           O8   2.460   1_556  S
C9           O13   1.262       .  A
C9           C17   1.467       .  S
O14          C17   1.268       .  A
O14         Cd19   2.478       .  S
C15          O24   1.266       .  A
C15          O20   1.271       .  A
C15        C1129   1.483       .  S
O16          C22   1.269   1_554  A
O16         Cd19   2.467   1_554  S
C17          O25   1.262   1_556  A
C18          O23   1.270       .  A
C18          O21   1.266       .  A
C18        C1170   1.492       .  S
Cd19         O26   2.448       .  S
Cd19         O25   2.465   1_556  S
Cd19         O24   2.439       .  S
Cd19         O20   2.470       .  S
Cd19         O23   2.480   1_556  S
Cd19         O21   2.447   1_556  S
C22          O26   1.262       .  A
C22          C30   1.463       .  S
O27          C30   1.269       .  A
O27         Cd32   2.485       .  S
C28          O37   1.266       .  A
C28          O33   1.271       .  A
C28        C1101   1.484       .  S
O29          C35   1.267   1_554  A
O29         Cd32   2.468   1_554  S
C30          O38   1.261   1_556  A
C31          O36   1.269       .  A
C31          O34   1.267       .  A
C31        C1073   1.487       .  S
Cd32         O39   2.456       .  S
Cd32         O38   2.440   1_556  S
Cd32         O37   2.429       .  S
Cd32         O33   2.483       .  S
Cd32         O36   2.469   1_556  S
Cd32         O34   2.452   1_556  S
C35          O39   1.262       .  A
C35          C41   1.463       .  S
O40          C43   1.271       .  A
O40         Cd45   2.483       .  S
C41          O50   1.262   1_556  A
C41          O46   1.270       .  A
O42          C48   1.271       .  A
O42         Cd45   2.494   1_554  S
C43          O51   1.267       .  A
C43        C1045   1.488       .  S
C44          O49   1.270   1_556  A
C44          O47   1.262       .  A
Cd45         O52   2.451   1_556  S
Cd45         O51   2.455       .  S
Cd45         O50   2.438   1_556  S
Cd45         O46   2.478       .  S
Cd45         O49   2.469   1_556  S
Cd45         O47   2.440       .  S
C48          O52   1.267       .  A
C48        C1030   1.490       .  S
C53         C933   1.582       .  S
C53         C961   1.570       .  S
C53         C989   1.581       .  S
C53        C1058   1.569       .  S
C54         C877   1.572       .  S
C54         C905   1.568       .  S
C54        C1002   1.572       .  S
C54        C1226   1.567       .  S
C55         C821   1.573       .  S
C55         C849   1.572       .  S
C55         C974   1.569       .  S
C55        C1017   1.566       .  S
C56         C778   1.561       .  S
C56         C793   1.571       .  S
C56         C862   1.572       .  S
C56        C1114   1.570       .  S
C57         C722   1.590       .  S
C57         C737   1.588       .  S
C57         C918   1.578       .  S
C57        C1198   1.569       .  S
C58         C666   1.574       .  S
C58         C681   1.571       .  S
C58         C750   1.583       .  S
C58        C1157   1.591       .  S
C59         C610   1.577       .  S
C59         C625   1.567       .  S
C59         C806   1.570       .  S
C59        C1086   1.573       .  S
C60         C569   1.575       .  S
C60         C638   1.569       .  S
C60         C694   1.574       .  S
C60        C1142   1.569       .  S
O61          C64   1.271       .  A
O61         Cd66   2.488   1_556  S
C62          O71   1.262       .  A
C62          O67   1.269   1_554  A
C62          C75   1.471       .  S
O63          C69   1.270       .  A
O63         Cd66   2.489       .  S
C64          O72   1.265       .  A
C64         C554   1.478       .  S
C65          O70   1.270       .  A
C65          O68   1.266       .  A
C65         C513   1.492       .  S
Cd66         O73   2.461   1_554  S
Cd66         O72   2.453   1_554  S
Cd66         O71   2.453       .  S
Cd66         O67   2.510   1_554  S
Cd66         O70   2.489       .  S
Cd66         O68   2.467       .  S
C69          O73   1.263   1_554  A
C69         C108   1.470       .  S
O74          C77   1.270       .  A
O74         Cd79   2.490       .  S
C75          O84   1.262   1_554  A
C75          O80   1.267       .  A
O76          C82   1.268   1_556  A
O76         Cd79   2.498   1_556  S
C77          O85   1.267       .  A
C77         C498   1.493       .  S
C78          O83   1.269       .  A
C78          O81   1.268       .  A
C78         C470   1.492       .  S
Cd79         O86   2.470       .  S
Cd79         O85   2.453       .  S
Cd79         O84   2.488   1_554  S
Cd79         O80   2.486       .  S
Cd79         O83   2.483   1_554  S
Cd79         O81   2.479   1_554  S
C82          O86   1.260       .  A
C82          C95   1.470       .  S
O87          C90   1.271       .  A
O87         Cd92   2.453   1_556  S
C88          O97   1.261       .  A
C88          O93   1.268   1_554  A
C88         C101   1.463       .  S
O89          C95   1.270       .  A
O89         Cd92   2.493       .  S
C90          O98   1.268       .  A
C90         C401   1.490       .  S
C91          O96   1.269       .  A
C91          O94   1.267       .  A
C91         C442   1.484       .  S
Cd92         O99   2.455   1_554  S
Cd92         O98   2.453   1_554  S
Cd92         O97   2.450       .  S
Cd92         O93   2.476   1_554  S
Cd92         O96   2.462       .  S
Cd92         O94   2.477       .  S
C95          O99   1.262   1_554  A
O100        C103   1.271       .  A
O100       Cd105   2.477       .  S
C101        O110   1.260   1_554  A
C101        O106   1.268       .  A
O102        C108   1.270   1_556  A
O102       Cd105   2.489   1_556  S
C103        O111   1.267       .  A
C103        C373   1.479       .  S
C104        O109   1.269       .  A
C104        O107   1.267       .  A
C104        C345   1.483       .  S
Cd105       O112   2.460       .  S
Cd105       O111   2.442       .  S
Cd105       O110   2.445   1_554  S
Cd105       O106   2.485       .  S
Cd105       O109   2.469   1_554  S
Cd105       O107   2.477   1_554  S
C108        O112   1.263       .  A
C113        C302   1.574       .  S
C113        C317   1.580       .  S
C113        C541   1.585       .  S
C113        C709   1.572       .  S
C114        C261   1.570       .  S
C114        C330   1.574       .  S
C114        C386   1.569       .  S
C114        C834   1.572       .  S
C115        C205   1.564       .  S
C115        C233   1.578       .  S
C115        C429   1.568       .  S
C115        C597   1.579       .  S
C116        C246   1.575       .  S
C116        C274   1.571       .  S
C116        C358   1.576       .  S
C116        C946   1.572       .  S
C117        C149   1.570       .  S
C117        C190   1.568       .  S
C117        C485   1.570       .  S
C117        C653   1.563       .  S
C118        C177   1.567       .  S
C118        C218   1.573       .  S
C118        C414   1.566       .  S
C118        C765   1.571       .  S
C119        C121   1.569       .  S
C119        C162   1.574       .  S
C119        C457   1.576       .  S
C119        C582   1.575       .  S
C120        C134   1.572       .  S
C120        C289   1.579       .  S
C120        C526   1.567       .  S
C120        C890   1.576       .  S
C121        C122   1.431       .  A
C121        C126   1.415       .  A
C122        C123   1.402       .  A
C122        N127   1.432       .  S
C123        C124   1.399       .  A
C123        H128   1.084       .  S
C124        C129   1.502       .  S
C124        C125   1.413       .  A
C125        C126   1.414       .  A
C125        N130   1.437       .  S
C126        H131   1.083       .  S
N127        H147   1.046       .  S
N127        H148   1.046       .  S
C129        C132   1.402       .  A
C129        C136   1.411       .  A
N130        H145   1.046       .  S
N130        H146   1.046       .  S
C132        C133   1.410       .  A
C132        H137   1.083       .  S
C133        C134   1.431       .  A
C133        N138   1.431       .  S
C134        C135   1.416       .  A
C135        C136   1.406       .  A
C135        H139   1.079       .  S
C136        N140   1.439       .  S
N138        H141   1.046   1_455  S
N138        H142   1.046   1_455  S
N140        H143   1.046       .  S
N140        H144   1.046       .  S
C149        C150   1.425       .  A
C149        C154   1.420   1_565  A
C150        C151   1.398       .  A
C150        N155   1.430       .  S
C151        C152   1.403   1_565  A
C151        H156   1.080       .  S
C152        C157   1.504       .  S
C152        C153   1.414       .  A
C153        C154   1.404       .  A
C153        N158   1.438       .  S
C154        H159   1.081       .  S
N155        H175   1.046       .  S
N155        H176   1.045       .  S
C157        C160   1.404       .  A
C157        C164   1.412       .  A
N158        H173   1.046       .  S
N158        H174   1.046       .  S
C160        C161   1.402       .  A
C160        H165   1.081       .  S
C161        C162   1.426       .  A
C161        N166   1.430       .  S
C162        C163   1.415       .  A
C163        C164   1.399       .  A
C163        H167   1.072       .  S
C164        N168   1.434       .  S
N166        H169   1.046       .  S
N166        H170   1.046       .  S
N168        H171   1.046       .  S
N168        H172   1.046       .  S
C177        C178   1.424       .  A
C177        C182   1.418       .  A
C178        C179   1.405       .  A
C178        N183   1.433       .  S
C179        C180   1.399       .  A
C179        H184   1.084       .  S
C180        C185   1.484       .  S
C180        C181   1.405       .  A
C181        C182   1.406       .  A
C181        N186   1.439       .  S
C182        H187   1.078       .  S
N183        H203   1.046       .  S
N183        H204   1.046       .  S
C185        C188   1.395       .  A
C185        C192   1.413       .  A
N186        H201   1.045   1_565  S
N186        H202   1.045       .  S
C188        C189   1.402       .  A
C188        H193   1.085       .  S
C189        C190   1.431       .  A
C189        N194   1.432       .  S
C190        C191   1.416       .  A
C191        C192   1.405       .  A
C191        H195   1.082       .  S
C192        N196   1.438       .  S
N194        H197   1.046       .  S
N194        H198   1.046       .  S
N196        H199   1.045       .  S
N196        H200   1.044       .  S
C205        C206   1.427       .  A
C205        C210   1.416       .  A
C206        C207   1.400       .  A
C206        N211   1.429       .  S
C207        C208   1.392       .  A
C207        H212   1.084       .  S
C208        C213   1.471       .  S
C208        C209   1.403       .  A
C209        C210   1.404       .  A
C209        N214   1.438       .  S
C210        H215   1.080       .  S
N211        H231   1.046       .  S
N211        H232   1.046       .  S
C213        C216   1.396       .  A
C213        C220   1.397       .  A
N214        H229   1.045       .  S
N214        H230   1.045       .  S
C216        C217   1.401   1_545  A
C216        H221   1.084       .  S
C217        C218   1.426       .  A
C217        N222   1.433       .  S
C218        C219   1.424   1_565  A
C219        C220   1.401       .  A
C219        H223   1.075       .  S
C220        N224   1.439       .  S
N222        H225   1.046       .  S
N222        H226   1.046       .  S
N224        H227   1.045       .  S
N224        H228   1.045       .  S
C233        C234   1.435       .  A
C233        C238   1.421       .  A
C234        C235   1.408       .  A
C234        N239   1.431       .  S
C235        C236   1.397       .  A
C235        H240   1.084       .  S
C236        C241   1.493       .  S
C236        C237   1.405       .  A
C237        C238   1.409       .  A
C237        N242   1.438       .  S
C238        H243   1.083       .  S
N239        H259   1.046       .  S
N239        H260   1.046       .  S
C241        C244   1.399       .  A
C241        C248   1.410       .  A
N242        H257   1.046       .  S
N242        H258   1.045       .  S
C244        C245   1.407       .  A
C244        H249   1.084       .  S
C245        C246   1.428       .  A
C245        N250   1.433       .  S
C246        C247   1.419       .  A
C247        C248   1.405       .  A
C247        H251   1.079       .  S
C248        N252   1.433       .  S
N250        H253   1.046       .  S
N250        H254   1.046       .  S
N252        H255   1.044       .  S
N252        H256   1.046       .  S
C261        C262   1.429       .  A
C261        C266   1.417       .  A
C262        C263   1.395       .  A
C262        N267   1.432       .  S
C263        C264   1.392       .  A
C263        H268   1.084       .  S
C264        C269   1.476       .  S
C264        C265   1.407       .  A
C265        C266   1.408       .  A
C265        N270   1.438       .  S
C266        H271   1.080       .  S
N267        H287   1.046       .  S
N267        H288   1.046       .  S
C269        C272   1.392       .  A
C269        C276   1.406       .  A
N270        H285   1.046       .  S
N270        H286   1.045       .  S
C272        C273   1.399       .  A
C272        H277   1.084       .  S
C273        C274   1.432       .  A
C273        N278   1.433       .  S
C274        C275   1.415       .  A
C275        C276   1.404       .  A
C275        H279   1.077       .  S
C276        N280   1.439       .  S
N278        H281   1.046       .  S
N278        H282   1.046       .  S
N280        H283   1.046       .  S
N280        H284   1.046       .  S
C289        C290   1.436       .  A
C289        C294   1.416       .  A
C290        C291   1.398       .  A
C290        N295   1.431       .  S
C291        C292   1.390       .  A
C291        H296   1.084       .  S
C292        C297   1.483       .  S
C292        C293   1.408       .  A
C293        C294   1.411       .  A
C293        N298   1.437       .  S
C294        H299   1.083       .  S
N295        H315   1.046       .  S
N295        H316   1.045       .  S
C297        C300   1.395       .  A
C297        C304   1.408       .  A
N298        H313   1.046       .  S
N298        H314   1.046       .  S
C300        C301   1.401       .  A
C300        H305   1.084       .  S
C301        C302   1.429       .  A
C301        N306   1.431       .  S
C302        C303   1.420       .  A
C303        C304   1.407       .  A
C303        H307   1.083       .  S
C304        N308   1.437       .  S
N306        H309   1.046       .  S
N306        H310   1.046       .  S
N308        H311   1.046       .  S
N308        H312   1.046       .  S
C317        C318   1.431       .  A
C317        C322   1.420       .  A
C318        C319   1.409       .  A
C318        N323   1.433       .  S
C319        C320   1.398       .  A
C319        H324   1.084       .  S
C320        C325   1.493       .  S
C320        C321   1.407       .  A
C321        C322   1.411       .  A
C321        N326   1.440       .  S
C322        H327   1.074       .  S
N323        H343   1.046       .  S
N323        H344   1.046       .  S
C325        C328   1.399       .  A
C325        C332   1.409       .  A
N326        H341   1.046       .  S
N326        H342   1.042       .  S
C328        C329   1.410       .  A
C328        H333   1.084       .  S
C329        C330   1.429       .  A
C329        N334   1.431       .  S
C330        C331   1.419       .  A
C331        C332   1.409       .  A
C331        H335   1.082       .  S
C332        N336   1.440       .  S
N334        H337   1.046       .  S
N334        H338   1.046       .  S
N336        H339   1.046       .  S
N336        H340   1.042       .  S
C345        C346   1.413       .  A
C345        C350   1.404       .  A
C346        C347   1.410       .  A
C346        N351   1.437       .  S
C347        C348   1.403       .  A
C347        H352   1.084       .  S
C348        C353   1.482       .  S
C348        C349   1.410       .  A
C349        C350   1.406       .  A
C349        N354   1.439       .  S
C350        H355   1.084       .  S
N351        H371   1.046       .  S
N351        H372   1.046       .  S
C353        C356   1.402       .  A
C353        C360   1.400       .  A
N354        H369   1.046       .  S
N354        H370   1.045       .  S
C356        C357   1.414       .  A
C356        H361   1.083       .  S
C357        C358   1.426       .  A
C357        N362   1.433       .  S
C358        C359   1.421       .  A
C359        C360   1.395       .  A
C359        H363   1.074       .  S
C360        N364   1.441       .  S
N362        H365   1.045       .  S
N362        H366   1.046       .  S
N364        H367   1.046       .  S
N364        H368   1.044       .  S
C373        C374   1.409       .  A
C373        C378   1.405       .  A
C374        C375   1.407       .  A
C374        N379   1.438       .  S
C375        C376   1.409       .  A
C375        H380   1.084       .  S
C376        C381   1.493       .  S
C376        C377   1.411       .  A
C377        C378   1.406       .  A
C377        N382   1.437       .  S
C378        H383   1.084       .  S
N379        H399   1.045       .  S
N379        H400   1.046       .  S
C381        C384   1.407       .  A
C381        C388   1.406       .  A
N382        H397   1.046       .  S
N382        H398   1.046       .  S
C384        C385   1.411       .  A
C384        H389   1.083       .  S
C385        C386   1.420       .  A
C385        N390   1.432       .  S
C386        C387   1.419       .  A
C387        C388   1.398       .  A
C387        H391   1.079       .  S
C388        N392   1.440       .  S
N390        H393   1.045       .  S
N390        H394   1.045       .  S
N392        H395   1.046       .  S
N392        H396   1.046       .  S
C401        C402   1.420       .  A
C401        C406   1.406       .  A
C402        C403   1.409       .  A
C402        N407   1.438       .  S
C403        C404   1.399       .  A
C403        H408   1.084   1_545  S
C404        C409   1.482   1_545  S
C404        C405   1.409       .  A
C405        C406   1.404       .  A
C405        N410   1.438       .  S
C406        H411   1.083       .  S
N407        H427   1.046       .  S
N407        H428   1.046   1_545  S
C409        C412   1.399   1_565  A
C409        C416   1.406       .  A
N410        H425   1.046       .  S
N410        H426   1.046       .  S
C412        C413   1.402   1_545  A
C412        H417   1.084       .  S
C413        C414   1.424       .  A
C413        N418   1.432   1_565  S
C414        C415   1.415       .  A
C415        C416   1.407       .  A
C415        H419   1.079       .  S
C416        N420   1.438       .  S
N418        H421   1.045       .  S
N418        H422   1.046       .  S
N420        H423   1.046       .  S
N420        H424   1.046       .  S
C429        C430   1.436       .  A
C429        C434   1.415       .  A
C430        C431   1.399       .  A
C430        N435   1.433       .  S
C431        C432   1.391       .  A
C431        H436   1.085       .  S
C432        C437   1.481       .  S
C432        C433   1.406       .  A
C433        C434   1.413       .  A
C433        N438   1.436       .  S
C434        H439   1.083       .  S
N435        H455   1.046       .  S
N435        H456   1.046       .  S
C437        C440   1.400       .  A
C437        C444   1.409       .  A
N438        H453   1.046       .  S
N438        H454   1.045       .  S
C440        C441   1.405       .  A
C440        H445   1.084       .  S
C441        C442   1.414       .  A
C441        N446   1.438       .  S
C442        C443   1.407       .  A
C443        C444   1.411       .  A
C443        H447   1.084       .  S
C444        N448   1.437       .  S
N446        H449   1.046       .  S
N446        H450   1.045       .  S
N448        H451   1.046       .  S
N448        H452   1.045       .  S
C457        C458   1.433       .  A
C457        C462   1.423       .  A
C458        C459   1.407       .  A
C458        N463   1.430       .  S
C459        C460   1.397       .  A
C459        H464   1.084       .  S
C460        C465   1.485       .  S
C460        C461   1.402       .  A
C461        C462   1.406       .  A
C461        N466   1.437       .  S
C462        H467   1.084       .  S
N463        H483   1.046       .  S
N463        H484   1.046       .  S
C465        C468   1.401       .  A
C465        C472   1.408       .  A
N466        H481   1.046       .  S
N466        H482   1.046       .  S
C468        C469   1.411       .  A
C468        H473   1.084       .  S
C469        C470   1.417       .  A
C469        N474   1.437       .  S
C470        C471   1.407       .  A
C471        C472   1.407       .  A
C471        H475   1.083       .  S
C472        N476   1.438       .  S
N474        H477   1.046       .  S
N474        H478   1.046       .  S
N476        H479   1.046       .  S
N476        H480   1.046       .  S
C485        C486   1.427       .  A
C485        C490   1.420       .  A
C486        C487   1.403       .  A
C486        N491   1.431       .  S
C487        C488   1.395   1_565  A
C487        H492   1.084       .  S
C488        C493   1.485       .  S
C488        C489   1.406   1_545  A
C489        C490   1.409       .  A
C489        N494   1.438   1_565  S
C490        H495   1.078       .  S
N491        H511   1.045       .  S
N491        H512   1.046       .  S
C493        C496   1.403       .  A
C493        C500   1.406       .  A
N494        H509   1.046       .  S
N494        H510   1.046       .  S
C496        C497   1.410       .  A
C496        H501   1.084       .  S
C497        C498   1.418       .  A
C497        N502   1.438       .  S
C498        C499   1.409       .  A
C499        C500   1.407       .  A
C499        H503   1.083       .  S
C500        N504   1.437   1_545  S
N502        H505   1.046       .  S
N502        H506   1.046       .  S
N504        H507   1.045       .  S
N504        H508   1.046       .  S
C513        C514   1.420       .  A
C513        C518   1.405       .  A
C514        C515   1.412       .  A
C514        N519   1.437       .  S
C515        C516   1.400       .  A
C515        H520   1.084       .  S
C516        C521   1.484       .  S
C516        C517   1.406       .  A
C517        C518   1.403       .  A
C517        N522   1.431       .  S
C518        H523   1.084       .  S
N519        H539   1.046       .  S
N519        H540   1.046       .  S
C521        C524   1.400       .  A
C521        C528   1.404       .  A
N522        H537   1.045       .  S
N522        H538   1.046       .  S
C524        C525   1.408       .  A
C524        H529   1.084       .  S
C525        C526   1.426       .  A
C525        N530   1.431       .  S
C526        C527   1.420       .  A
C527        C528   1.405       .  A
C527        H531   1.083       .  S
C528        N532   1.438       .  S
N530        H533   1.046       .  S
N530        H534   1.045       .  S
N532        H535   1.046       .  S
N532        H536   1.045       .  S
C541        C542   1.426       .  A
C541        C546   1.423       .  A
C542        C543   1.413       .  A
C542        N547   1.433       .  S
C543        C544   1.405       .  A
C543        H548   1.083       .  S
C544        C549   1.491       .  S
C544        C545   1.403       .  A
C545        C546   1.397       .  A
C545        N550   1.441       .  S
C546        H551   1.074       .  S
N547        H567   1.046       .  S
N547        H568   1.045       .  S
C549        C552   1.408       .  A
C549        C556   1.410       .  A
N550        H565   1.046       .  S
N550        H566   1.046       .  S
C552        C553   1.407       .  A
C552        H557   1.084       .  S
C553        C554   1.408       .  A
C553        N558   1.437       .  S
C554        C555   1.404       .  A
C555        C556   1.408       .  A
C555        H559   1.084       .  S
C556        N560   1.438       .  S
N558        H561   1.046       .  S
N558        H562   1.046       .  S
N560        H563   1.045       .  S
N560        H564   1.046       .  S
C569        C570   1.432   1_565  A
C569        C574   1.419       .  A
C570        C571   1.408       .  A
C570        N575   1.430       .  S
C571        C572   1.399       .  A
C571        H576   1.084       .  S
C572        C577   1.495       .  S
C572        C573   1.409       .  A
C573        C574   1.405   1_545  A
C573        N578   1.439       .  S
C574        H579   1.083       .  S
N575        H595   1.046       .  S
N575        H596   1.046       .  S
C577        C580   1.401       .  A
C577        C584   1.412       .  A
N578        H593   1.046   1_545  S
N578        H594   1.046   1_655  S
C580        C581   1.406   1_655  A
C580        H585   1.084       .  S
C581        C582   1.426       .  A
C581        N586   1.433       .  S
C582        C583   1.415       .  A
C583        C584   1.410   1_455  A
C583        H587   1.082       .  S
C584        N588   1.438       .  S
N586        H589   1.046       .  S
N586        H590   1.045   1_455  S
N588        H591   1.045       .  S
N588        H592   1.046       .  S
C597        C598   1.431       .  A
C597        C602   1.418       .  A
C598        C599   1.417       .  A
C598        N603   1.431       .  S
C599        C600   1.401       .  A
C599        H604   1.084       .  S
C600        C605   1.490       .  S
C600        C601   1.400       .  A
C601        C602   1.400       .  A
C601        N606   1.433       .  S
C602        H607   1.076       .  S
N603        H623   1.045       .  S
N603        H624   1.046       .  S
C605        C608   1.398       .  A
C605        C612   1.408       .  A
N606        H621   1.046   1_545  S
N606        H622   1.046   1_545  S
C608        C609   1.407   1_545  A
C608        H613   1.084       .  S
C609        C610   1.426       .  A
C609        N614   1.432       .  S
C610        C611   1.417       .  A
C611        C612   1.412   1_565  A
C611        H615   1.080       .  S
C612        N616   1.438       .  S
N614        H617   1.046       .  S
N614        H618   1.045       .  S
N616        H619   1.045       .  S
N616        H620   1.045       .  S
C625        C626   1.422       .  A
C625        C630   1.418       .  A
C626        C627   1.410       .  A
C626        N631   1.432       .  S
C627        C628   1.402       .  A
C627        H632   1.084       .  S
C628        C633   1.485       .  S
C628        C629   1.411       .  A
C629        C630   1.399       .  A
C629        N634   1.440       .  S
C630        H635   1.078       .  S
N631        H651   1.045   1_565  S
N631        H652   1.045       .  S
C633        C636   1.399       .  A
C633        C640   1.404       .  A
N634        H649   1.046       .  S
N634        H650   1.042       .  S
C636        C637   1.406       .  A
C636        H641   1.084       .  S
C637        C638   1.427       .  A
C637        N642   1.433       .  S
C638        C639   1.419       .  A
C639        C640   1.406       .  A
C639        H643   1.075       .  S
C640        N644   1.439       .  S
N642        H645   1.046       .  S
N642        H646   1.045   1_565  S
N644        H647   1.046       .  S
N644        H648   1.046       .  S
C653        C654   1.423       .  A
C653        C658   1.411       .  A
C654        C655   1.408       .  A
C654        N659   1.432       .  S
C655        C656   1.406       .  A
C655        H660   1.083       .  S
C656        C661   1.512       .  S
C656        C657   1.418       .  A
C657        C658   1.407       .  A
C657        N662   1.433       .  S
C658        H663   1.082       .  S
N659        H679   1.045       .  S
N659        H680   1.046       .  S
C661        C664   1.405       .  A
C661        C668   1.420       .  A
N662        H677   1.046       .  S
N662        H678   1.044       .  S
C664        C665   1.408       .  A
C664        H669   1.082       .  S
C665        C666   1.428       .  A
C665        N670   1.432       .  S
C666        C667   1.412       .  A
C667        C668   1.408       .  A
C667        H671   1.077       .  S
C668        N672   1.439       .  S
N670        H673   1.046       .  S
N670        H674   1.045       .  S
N672        H675   1.046       .  S
N672        H676   1.046       .  S
C681        C682   1.434       .  A
C681        C686   1.423   1_455  A
C682        C683   1.403       .  A
C682        N687   1.429       .  S
C683        C684   1.393   1_455  A
C683        H688   1.084       .  S
C684        C689   1.475       .  S
C684        C685   1.401       .  A
C685        C686   1.402       .  A
C685        N690   1.438       .  S
C686        H691   1.083       .  S
N687        H707   1.046       .  S
N687        H708   1.046       .  S
C689        C692   1.398       .  A
C689        C696   1.400       .  A
N690        H705   1.046       .  S
N690        H706   1.045       .  S
C692        C693   1.405       .  A
C692        H697   1.084       .  S
C693        C694   1.424       .  A
C693        N698   1.432       .  S
C694        C695   1.423       .  A
C695        C696   1.401       .  A
C695        H699   1.078       .  S
C696        N700   1.439       .  S
N698        H701   1.046       .  S
N698        H702   1.046       .  S
N700        H703   1.046       .  S
N700        H704   1.045       .  S
C709        C710   1.425       .  A
C709        C714   1.417       .  A
C710        C711   1.416       .  A
C710        N715   1.435       .  S
C711        C712   1.410       .  A
C711        H716   1.079       .  S
C712        C717   1.514       .  S
C712        C713   1.414       .  A
C713        C714   1.401       .  A
C713        N718   1.439       .  S
C714        H719   1.081       .  S
N715        H735   1.045       .  S
N715        H736   1.046       .  S
C717        C720   1.400       .  A
C717        C724   1.414       .  A
N718        H733   1.046       .  S
N718        H734   1.045       .  S
C720        C721   1.393       .  A
C720        H725   1.083       .  S
C721        C722   1.440       .  A
C721        N726   1.434       .  S
C722        C723   1.421       .  A
C723        C724   1.418       .  A
C723        H727   1.073       .  S
C724        N728   1.437       .  S
N726        H729   1.041       .  S
N726        H730   1.041       .  S
N728        H731   1.045       .  S
N728        H732   1.046       .  S
C737        C738   1.431       .  A
C737        C742   1.426       .  A
C738        C739   1.409       .  A
C738        N743   1.434       .  S
C739        C740   1.400       .  A
C739        H744   1.084       .  S
C740        C745   1.494       .  S
C740        C741   1.403       .  A
C741        C742   1.409       .  A
C741        N746   1.439       .  S
C742        H747   1.074       .  S
N743        H763   1.046       .  S
N743        H764   1.046       .  S
C745        C748   1.402       .  A
C745        C752   1.405       .  A
N746        H761   1.045       .  S
N746        H762   1.046   1_455  S
C748        C749   1.411       .  A
C748        H753   1.084       .  S
C749        C750   1.427       .  A
C749        N754   1.433       .  S
C750        C751   1.423       .  A
C751        C752   1.406       .  A
C751        H755   1.076       .  S
C752        N756   1.439       .  S
N754        H757   1.046       .  S
N754        H758   1.046       .  S
N756        H759   1.045       .  S
N756        H760   1.046   1_455  S
C765        C766   1.429       .  A
C765        C770   1.422       .  A
C766        C767   1.400       .  A
C766        N771   1.433       .  S
C767        C768   1.395       .  A
C767        H772   1.084       .  S
C768        C773   1.477       .  S
C768        C769   1.399       .  A
C769        C770   1.404       .  A
C769        N774   1.432       .  S
C770        H775   1.078       .  S
N771        H791   1.046       .  S
N771        H792   1.046       .  S
C773        C776   1.398       .  A
C773        C780   1.402       .  A
N774        H789   1.045       .  S
N774        H790   1.046       .  S
C776        C777   1.408       .  A
C776        H781   1.084       .  S
C777        C778   1.425       .  A
C777        N782   1.432       .  S
C778        C779   1.417       .  A
C779        C780   1.400       .  A
C779        H783   1.079       .  S
C780        N784   1.439       .  S
N782        H785   1.045       .  S
N782        H786   1.045       .  S
N784        H787   1.046       .  S
N784        H788   1.046       .  S
C793        C794   1.428       .  A
C793        C798   1.419       .  A
C794        C795   1.392       .  A
C794        N799   1.429       .  S
C795        C796   1.393       .  A
C795        H800   1.085       .  S
C796        C801   1.483       .  S
C796        C797   1.405       .  A
C797        C798   1.408       .  A
C797        N802   1.432       .  S
C798        H803   1.079       .  S
N799        H819   1.046       .  S
N799        H820   1.046       .  S
C801        C804   1.397       .  A
C801        C808   1.408       .  A
N802        H817   1.046       .  S
N802        H818   1.046       .  S
C804        C805   1.404       .  A
C804        H809   1.083       .  S
C805        C806   1.429       .  A
C805        N810   1.432       .  S
C806        C807   1.415       .  A
C807        C808   1.398       .  A
C807        H811   1.079       .  S
C808        N812   1.440       .  S
N810        H813   1.046       .  S
N810        H814   1.046       .  S
N812        H815   1.045       .  S
N812        H816   1.046       .  S
C821        C822   1.430       .  A
C821        C826   1.418       .  A
C822        C823   1.409       .  A
C822        N827   1.430       .  S
C823        C824   1.402       .  A
C823        H828   1.084       .  S
C824        C829   1.497       .  S
C824        C825   1.409       .  A
C825        C826   1.402       .  A
C825        N830   1.439       .  S
C826        H831   1.080       .  S
N827        H847   1.046       .  S
N827        H848   1.046       .  S
C829        C832   1.400       .  A
C829        C836   1.409       .  A
N830        H845   1.046       .  S
N830        H846   1.046       .  S
C832        C833   1.405       .  A
C832        H837   1.084       .  S
C833        C834   1.431       .  A
C833        N838   1.429       .  S
C834        C835   1.420       .  A
C835        C836   1.405       .  A
C835        H839   1.083       .  S
C836        N840   1.438       .  S
N838        H841   1.046       .  S
N838        H842   1.046       .  S
N840        H843   1.046       .  S
N840        H844   1.046       .  S
C849        C850   1.431       .  A
C849        C854   1.417       .  A
C850        C851   1.402       .  A
C850        N855   1.432       .  S
C851        C852   1.399       .  A
C851        H856   1.084       .  S
C852        C857   1.503       .  S
C852        C853   1.413       .  A
C853        C854   1.415       .  A
C853        N858   1.437       .  S
C854        H859   1.083       .  S
N855        H875   1.046       .  S
N855        H876   1.046       .  S
C857        C860   1.404       .  A
C857        C864   1.419       .  A
N858        H873   1.046       .  S
N858        H874   1.046       .  S
C860        C861   1.408       .  A
C860        H865   1.083       .  S
C861        C862   1.424       .  A
C861        N866   1.433       .  S
C862        C863   1.415       .  A
C863        C864   1.404       .  A
C863        H867   1.081       .  S
C864        N868   1.440       .  S
N866        H869   1.046       .  S
N866        H870   1.045       .  S
N868        H871   1.046       .  S
N868        H872   1.043       .  S
C877        C878   1.433       .  A
C877        C882   1.419       .  A
C878        C879   1.411       .  A
C878        N883   1.431       .  S
C879        C880   1.397       .  A
C879        H884   1.084       .  S
C880        C885   1.487       .  S
C880        C881   1.403       .  A
C881        C882   1.404       .  A
C881        N886   1.439       .  S
C882        H887   1.079       .  S
N883        H903   1.046       .  S
N883        H904   1.046       .  S
C885        C888   1.397       .  A
C885        C892   1.406       .  A
N886        H901   1.046       .  S
N886        H902   1.045       .  S
C888        C889   1.409   1_655  A
C888        H893   1.084       .  S
C889        C890   1.429       .  A
C889        N894   1.432       .  S
C890        C891   1.419       .  A
C891        C892   1.406   1_455  A
C891        H895   1.074       .  S
C892        N896   1.440       .  S
N894        H897   1.046   1_455  S
N894        H898   1.045   1_455  S
N896        H899   1.045   1_655  S
N896        H900   1.045       .  S
C905        C906   1.430       .  A
C905        C910   1.416       .  A
C906        C907   1.399       .  A
C906        N911   1.430       .  S
C907        C908   1.395       .  A
C907        H912   1.084       .  S
C908        C913   1.489       .  S
C908        C909   1.411       .  A
C909        C910   1.406       .  A
C909        N914   1.438       .  S
C910        H915   1.080       .  S
N911        H931   1.044       .  S
N911        H932   1.046       .  S
C913        C916   1.395       .  A
C913        C920   1.416   1_655  A
N914        H929   1.046       .  S
N914        H930   1.045       .  S
C916        C917   1.399       .  A
C916        H921   1.085       .  S
C917        C918   1.438   1_655  A
C917        N922   1.430       .  S
C918        C919   1.420       .  A
C919        C920   1.403       .  A
C919        H923   1.084       .  S
C920        N924   1.440       .  S
N922        H925   1.046       .  S
N922        H926   1.046       .  S
N924        H927   1.046       .  S
N924        H928   1.042       .  S
C933        C934   1.428       .  A
C933        C938   1.421       .  A
C934        C935   1.401       .  A
C934        N939   1.432       .  S
C935        C936   1.399       .  A
C935        H940   1.084       .  S
C936        C941   1.497       .  S
C936        C937   1.416       .  A
C937        C938   1.409       .  A
C937        N942   1.439       .  S
C938        H943   1.078       .  S
N939        H959   1.046       .  S
N939        H960   1.046       .  S
C941        C944   1.399       .  A
C941        C948   1.410       .  A
N942        H957   1.046       .  S
N942        H958   1.043       .  S
C944        C945   1.405       .  A
C944        H949   1.084       .  S
C945        C946   1.428       .  A
C945        N950   1.434       .  S
C946        C947   1.417       .  A
C947        C948   1.410       .  A
C947        H951   1.076       .  S
C948        N952   1.438       .  S
N950        H953   1.046       .  S
N950        H954   1.046       .  S
N952        H955   1.045       .  S
N952        H956   1.045       .  S
C961        C962   1.435       .  A
C961        C966   1.418       .  A
C962        C963   1.402       .  A
C962        N967   1.431       .  S
C963        C964   1.395       .  A
C963        H968   1.084       .  S
C964        C969   1.487       .  S
C964        C965   1.408       .  A
C965        C966   1.403       .  A
C965        N970   1.438       .  S
C966        H971   1.083       .  S
N967        H987   1.046       .  S
N967        H988   1.046       .  S
C969        C972   1.395       .  A
C969        C976   1.409       .  A
N970        H985   1.045       .  S
N970        H986   1.046       .  S
C972        C973   1.397       .  A
C972        H977   1.084       .  S
C973        C974   1.431       .  A
C973        N978   1.432       .  S
C974        C975   1.419       .  A
C975        C976   1.407       .  A
C975        H979   1.082       .  S
C976        N980   1.438       .  S
N978        H981   1.046       .  S
N978        H982   1.046       .  S
N980        H983   1.046       .  S
N980        H984   1.046       .  S
C989        C990   1.436       .  A
C989        C994   1.419       .  A
C990        C991   1.406       .  A
C990        N995   1.432       .  S
C991        C992   1.396       .  A
C991        H996   1.085       .  S
C992        C997   1.491       .  S
C992        C993   1.413       .  A
C993        C994   1.408       .  A
C993        N998   1.438       .  S
C994        H999   1.084       .  S
N995       H1015   1.046       .  S
N995       H1016   1.046       .  S
C997       C1000   1.395       .  A
C997       C1004   1.407       .  A
N998       H1013   1.046       .  S
N998       H1014   1.044       .  S
C1000      C1001   1.404       .  A
C1000      H1005   1.084       .  S
C1001      C1002   1.434       .  A
C1001      N1006   1.432       .  S
C1002      C1003   1.418       .  A
C1003      C1004   1.414       .  A
C1003      H1007   1.083       .  S
C1004      N1008   1.437       .  S
N1006      H1009   1.046       .  S
N1006      H1010   1.046       .  S
N1008      H1011   1.046       .  S
N1008      H1012   1.045       .  S
C1017      C1018   1.424       .  A
C1017      C1022   1.416       .  A
C1018      C1019   1.409       .  A
C1018      N1023   1.432       .  S
C1019      C1020   1.402       .  A
C1019      H1024   1.084       .  S
C1020      C1025   1.490       .  S
C1020      C1021   1.409       .  A
C1021      C1022   1.407       .  A
C1021      N1026   1.438       .  S
C1022      H1027   1.079       .  S
N1023      H1043   1.045       .  S
N1023      H1044   1.046       .  S
C1025      C1028   1.400       .  A
C1025      C1032   1.411       .  A
N1026      H1041   1.046       .  S
N1026      H1042   1.043       .  S
C1028      C1029   1.409       .  A
C1028      H1033   1.084       .  S
C1029      C1030   1.419       .  A
C1029      N1034   1.438       .  S
C1030      C1031   1.405       .  A
C1031      C1032   1.407       .  A
C1031      H1035   1.084       .  S
C1032      N1036   1.432       .  S
N1034      H1037   1.046       .  S
N1034      H1038   1.046       .  S
N1036      H1039   1.045       .  S
N1036      H1040   1.046       .  S
C1045      C1046   1.412       .  A
C1045      C1050   1.409       .  A
C1046      C1047   1.408       .  A
C1046      N1051   1.437       .  S
C1047      C1048   1.403       .  A
C1047      H1052   1.084       .  S
C1048      C1053   1.485       .  S
C1048      C1049   1.407       .  A
C1049      C1050   1.409       .  A
C1049      N1054   1.437       .  S
C1050      H1055   1.084       .  S
N1051      H1071   1.046       .  S
N1051      H1072   1.046       .  S
C1053      C1056   1.398       .  A
C1053      C1060   1.412       .  A
N1054      H1069   1.046       .  S
N1054      H1070   1.045       .  S
C1056      C1057   1.405       .  A
C1056      H1061   1.084       .  S
C1057      C1058   1.427       .  A
C1057      N1062   1.431       .  S
C1058      C1059   1.416       .  A
C1059      C1060   1.404       .  A
C1059      H1063   1.079       .  S
C1060      N1064   1.438       .  S
N1062      H1065   1.045       .  S
N1062      H1066   1.045       .  S
N1064      H1067   1.045       .  S
N1064      H1068   1.043       .  S
C1073      C1074   1.413       .  A
C1073      C1078   1.407       .  A
C1074      C1075   1.409       .  A
C1074      N1079   1.438       .  S
C1075      C1076   1.406       .  A
C1075      H1080   1.084       .  S
C1076      C1081   1.492       .  S
C1076      C1077   1.410       .  A
C1077      C1078   1.406       .  A
C1077      N1082   1.438       .  S
C1078      H1083   1.083       .  S
N1079      H1099   1.046       .  S
N1079      H1100   1.046       .  S
C1081      C1084   1.402       .  A
C1081      C1088   1.411       .  A
N1082      H1097   1.046       .  S
N1082      H1098   1.045       .  S
C1084      C1085   1.409       .  A
C1084      H1089   1.084       .  S
C1085      C1086   1.429       .  A
C1085      N1090   1.431       .  S
C1086      C1087   1.420       .  A
C1087      C1088   1.399       .  A
C1087      H1091   1.082       .  S
C1088      N1092   1.440       .  S
N1090      H1093   1.045       .  S
N1090      H1094   1.046       .  S
N1092      H1095   1.046       .  S
N1092      H1096   1.042       .  S
C1101      C1102   1.418       .  A
C1101      C1106   1.406       .  A
C1102      C1103   1.403       .  A
C1102      N1107   1.438       .  S
C1103      C1104   1.396       .  A
C1103      H1108   1.084       .  S
C1104      C1109   1.476       .  S
C1104      C1105   1.409       .  A
C1105      C1106   1.408       .  A
C1105      N1110   1.438       .  S
C1106      H1111   1.083       .  S
N1107      H1127   1.046       .  S
N1107      H1128   1.046       .  S
C1109      C1112   1.393       .  A
C1109      C1116   1.401       .  A
N1110      H1125   1.046       .  S
N1110      H1126   1.045       .  S
C1112      C1113   1.405       .  A
C1112      H1117   1.084       .  S
C1113      C1114   1.436       .  A
C1113      N1118   1.432       .  S
C1114      C1115   1.419       .  A
C1115      C1116   1.402       .  A
C1115      H1119   1.083       .  S
C1116      N1120   1.438       .  S
N1118      H1121   1.045       .  S
N1118      H1122   1.045       .  S
N1120      H1123   1.046       .  S
N1120      H1124   1.045       .  S
C1129      C1130   1.412       .  A
C1129      C1134   1.409       .  A
C1130      C1131   1.405       .  A
C1130      N1135   1.437       .  S
C1131      C1132   1.402       .  A
C1131      H1136   1.084       .  S
C1132      C1137   1.479       .  S
C1132      C1133   1.406       .  A
C1133      C1134   1.406       .  A
C1133      N1138   1.438       .  S
C1134      H1139   1.084       .  S
N1135      H1155   1.046       .  S
N1135      H1156   1.046       .  S
C1137      C1140   1.396       .  A
C1137      C1144   1.412       .  A
N1138      H1153   1.046       .  S
N1138      H1154   1.045       .  S
C1140      C1141   1.400       .  A
C1140      H1145   1.084       .  S
C1141      C1142   1.427       .  A
C1141      N1146   1.433       .  S
C1142      C1143   1.416       .  A
C1143      C1144   1.403       .  A
C1143      H1147   1.079       .  S
C1144      N1148   1.439       .  S
N1146      H1149   1.046       .  S
N1146      H1150   1.046       .  S
N1148      H1151   1.045       .  S
N1148      H1152   1.043       .  S
C1157      C1158   1.448       .  A
C1157      C1162   1.422       .  A
C1158      C1159   1.400   1_455  A
C1158      N1163   1.436       .  S
C1159      C1160   1.392       .  A
C1159      H1164   1.085       .  S
C1160      C1165   1.486       .  S
C1160      C1161   1.403       .  A
C1161      C1162   1.408   1_655  A
C1161      N1166   1.439       .  S
C1162      H1167   1.075       .  S
N1163      H1183   1.039       .  S
N1163      H1184   1.042       .  S
C1165      C1168   1.399       .  A
C1165      C1172   1.410       .  A
N1166      H1181   1.045       .  S
N1166      H1182   1.046       .  S
C1168      C1169   1.407       .  A
C1168      H1173   1.084   1_655  S
C1169      C1170   1.419       .  A
C1169      N1174   1.438       .  S
C1170      C1171   1.408       .  A
C1171      C1172   1.408       .  A
C1171      H1175   1.083       .  S
C1172      N1176   1.438       .  S
N1174      H1177   1.046       .  S
N1174      H1178   1.046       .  S
N1176      H1179   1.046       .  S
N1176      H1180   1.046       .  S
C1185      C1186   1.413       .  A
C1185      C1190   1.408       .  A
C1186      C1187   1.408       .  A
C1186      N1191   1.437       .  S
C1187      C1188   1.402       .  A
C1187      H1192   1.084       .  S
C1188      C1193   1.481       .  S
C1188      C1189   1.406       .  A
C1189      C1190   1.407       .  A
C1189      N1194   1.437       .  S
C1190      H1195   1.083       .  S
N1191      H1211   1.046       .  S
N1191      H1212   1.046       .  S
C1193      C1196   1.398       .  A
C1193      C1200   1.411   1_655  A
N1194      H1209   1.046       .  S
N1194      H1210   1.045   1_655  S
C1196      C1197   1.405       .  A
C1196      H1201   1.084       .  S
C1197      C1198   1.430   1_655  A
C1197      N1202   1.433       .  S
C1198      C1199   1.418       .  A
C1199      C1200   1.401       .  A
C1199      H1203   1.078       .  S
C1200      N1204   1.439       .  S
N1202      H1205   1.046       .  S
N1202      H1206   1.045       .  S
N1204      H1207   1.046       .  S
N1204      H1208   1.043       .  S
C1213      C1214   1.418       .  A
C1213      C1218   1.402       .  A
C1214      C1215   1.410       .  A
C1214      N1219   1.432       .  S
C1215      C1216   1.402       .  A
C1215      H1220   1.084       .  S
C1216      C1221   1.492       .  S
C1216      C1217   1.412       .  A
C1217      C1218   1.403       .  A
C1217      N1222   1.431       .  S
C1218      H1223   1.084       .  S
N1219      H1239   1.046       .  S
N1219      H1240   1.046       .  S
C1221      C1224   1.404       .  A
C1221      C1228   1.405       .  A
N1222      H1237   1.045       .  S
N1222      H1238   1.046       .  S
C1224      C1225   1.413       .  A
C1224      H1229   1.083       .  S
C1225      C1226   1.425       .  A
C1225      N1230   1.432       .  S
C1226      C1227   1.415       .  A
C1227      C1228   1.401       .  A
C1227      H1231   1.079       .  S
C1228      N1232   1.432       .  S
N1230      H1233   1.046       .  S
N1230      H1234   1.045       .  S
N1232      H1235   1.045       .  S
N1232      H1236   1.046       .  S
