geometry optimzed in LAMMPS
_audit_creation_date              2020-11-30 
_audit_creation_method            'lammps2cif' 
_symmetry_space_group_name_H-M    'P1' 
_symmetry_Int_Tables_number       1 
_symmetry_cell_setting            triclinic 
loop_ 
_symmetry_equiv_pos_as_xyz 
  x,y,z 
_cell_length_a                    31.43825669 
_cell_length_b                    31.440095494824575 
_cell_length_c                    61.372600450419654 
_cell_angle_alpha                 89.77325600949018 
_cell_angle_beta                  90.31676257083679 
_cell_angle_gamma                 119.77501231674543 
loop_ 
_atom_site_label 
_atom_site_type_symbol 
_atom_site_fract_x 
_atom_site_fract_y 
_atom_site_fract_z 
_atom_site_charge 
N1          N  0.10862622  0.46160270  0.54378958    -0.01400
C2          C  0.08427503  0.47065281  0.55978410     0.01200
C3          C  0.10365255  0.46985184  0.57996283    -0.21700
C4          C  0.14113048  0.46036346  0.57638713    -0.21900
C5          C  0.14351187  0.45551216  0.55414147     0.01100
H6          H  0.09358618  0.47829716  0.59552309     0.14900
H7          H  0.16493762  0.45832236  0.58865002     0.14900
N8          N  0.85781946  0.56114107  0.44174561    -0.01400
C9          C  0.87674972  0.54553881  0.42590684     0.01200
C10         C  0.84733284  0.53236892  0.40750360    -0.21700
C11         C  0.80919473  0.54024996  0.41209126    -0.21900
C12         C  0.81654425  0.55786105  0.43313638     0.01100
H13         H  0.85276719  0.51796753  0.39243246     0.14900
H14         H  0.78024229  0.53547128  0.40101174     0.14900
O15         O  0.92282716  0.60784304  0.54204492    -0.83300
O16         O  0.95249400  0.57666054  0.57731845    -0.80300
C17         C  0.99599616  0.58826755  0.57213017     1.00200
O18         O  0.02982935  0.63199338  0.57373200    -0.80400
O19         O  0.07721191  0.73033369  0.56920013    -0.83000
C20         C  0.07713320  0.74111732  0.54936793     1.04700
O21         O  0.03754643  0.72991911  0.53953103    -0.75800
O22         O  0.93699043  0.68084361  0.53210860    -0.76000
C23         C  0.92401136  0.63674014  0.52756922     1.04600
O24         O  0.87492943  0.64665084  0.56952304    -0.83300
O25         O  0.91103342  0.62284156  0.60480726    -0.80400
C26         C  0.94174457  0.62761352  0.61911952     1.00200
O27         O  0.98540113  0.64037122  0.61396695    -0.80400
O28         O  0.02827011  0.73942289  0.60592024    -0.83000
C29         C  0.03741068  0.77826883  0.59604362     1.04700
O30         O  0.02580319  0.77746320  0.57623760    -0.75800
O31         O  0.92719075  0.72512993  0.57222155    -0.76000
C32         C  0.88444790  0.68965546  0.57444606     1.04600
Cr33       Cr  0.91985708  0.61808372  0.57339948     1.93700
Cr34       Cr  0.02579269  0.68417450  0.58945350     1.93200
Cr35       Cr  0.98078850  0.72403774  0.55624223     1.39100
O36         O  0.97558419  0.67548169  0.57296039    -1.21000
N37         N  0.22373451  0.27053744  0.10648003    -0.01400
C38         C  0.19660771  0.28723318  0.09627419     0.01200
C39         C  0.20540368  0.29134303  0.07416062    -0.21700
C40         C  0.23949189  0.27694935  0.07056236    -0.21900
C41         C  0.25019626  0.26426166  0.09063887     0.01100
H42         H  0.18711041  0.30134213  0.06190318     0.14900
H43         H  0.25220361  0.27261258  0.05481677     0.14900
N44         N  0.43526936  0.12040939  0.21105505    -0.01400
C45         C  0.47051749  0.11374375  0.22059352     0.01200
C46         C  0.46982614  0.11829547  0.24291797    -0.21700
C47         C  0.43292223  0.12825352  0.24736244    -0.21900
C48         C  0.41218740  0.12952912  0.22759069     0.01100
H49         H  0.49386884  0.11505811  0.25466943     0.14900
H50         H  0.42405212  0.13653605  0.26323373     0.14900
O51         O  0.35631325  0.13289548  0.07263074    -0.83300
O52         O  0.38180751  0.09646181  0.10795659    -0.80300
C53         C  0.37811876  0.06542908  0.12197027     1.00200
O54         O  0.36245757  0.02119615  0.11660060    -0.80400
O55         O  0.26224401  0.97959980  0.10979918    -0.83000
C56         C  0.22331880  0.97199225  0.10034098     1.04700
O57         O  0.22365807  0.98387872  0.08062726    -0.75800
O58         O  0.27770744  0.08220485  0.07610200    -0.76000
C59         C  0.31383348  0.12475594  0.07763978     1.04600
O60         O  0.39126163  0.08215340  0.04444750    -0.83300
O61         O  0.42324494  0.05309806  0.07986931    -0.80400
C62         C  0.41097679  0.00954034  0.07469838     1.00200
O63         O  0.36703453  0.97605179  0.07602562    -0.80400
O64         O  0.26800214  0.92981837  0.07249774    -0.83000
C65         C  0.25658925  0.93058162  0.05278861     1.04700
O66         O  0.26850748  0.97050433  0.04326902    -0.75800
O67         O  0.31830808  0.06980253  0.03572488    -0.76000
C68         C  0.36086692  0.07922683  0.03026265     1.04600
Cr69       Cr  0.38341508  0.08679811  0.07619959     1.93700
Cr70       Cr  0.31626942  0.98109133  0.09251170     1.93200
Cr71       Cr  0.27635335  0.02755807  0.06018788     1.39100
O72         O  0.32522509  0.03182969  0.07637284    -1.21000
O73         O  0.24637993  0.28637034  0.27443807    -0.83300
O74         O  0.21469248  0.31788523  0.23980376    -0.80300
C75         C  0.22543972  0.36088070  0.24550338     1.00200
O76         O  0.26904618  0.39540771  0.24435886    -0.80400
O77         O  0.36840425  0.44434031  0.24765072    -0.83000
C78         C  0.38077056  0.44505550  0.26725472     1.04700
O79         O  0.36966310  0.40564791  0.27722373    -0.75800
O80         O  0.32048280  0.30463331  0.28482034    -0.76000
C81         C  0.27567749  0.28882598  0.28908067     1.04600
O82         O  0.28597843  0.24151575  0.24589037    -0.83300
O83         O  0.26102198  0.27895425  0.21104347    -0.80400
C84         C  0.26435965  0.31042058  0.19743058     1.00200
O85         O  0.27640617  0.35329935  0.20352737    -0.80400
O86         O  0.37691508  0.39657483  0.21078680    -0.83000
C87         C  0.41596375  0.40502850  0.22048187     1.04700
O88         O  0.41527125  0.39270654  0.24017270    -0.75800
O89         O  0.36452434  0.29456774  0.24478906    -0.76000
C90         C  0.32958223  0.25175100  0.24199612     1.04600
Cr91       Cr  0.25678353  0.28590964  0.24286364     1.93700
Cr92       Cr  0.32139367  0.39281968  0.22784124     1.93200
Cr93       Cr  0.36289614  0.34820170  0.26050418     1.39100
O94         O  0.31379746  0.34229459  0.24381859    -1.21000
N95         N  0.19649150  0.22044938  0.37450930    -0.01400
C96         C  0.18883316  0.17702859  0.38278274     0.01200
C97         C  0.16593742  0.16795896  0.40275640    -0.21700
C98         C  0.15927278  0.20690933  0.40704953    -0.21900
C99         C  0.17832447  0.23877832  0.38958807     0.01100
H100        H  0.15678412  0.13716445  0.41345448     0.14900
H101        H  0.14204540  0.21146715  0.42139068     0.14900
N102        N  0.09323900  0.46824682  0.27312096    -0.01400
C103        C  0.10473964  0.44515686  0.25739184     0.01200
C104        C  0.10795897  0.46693718  0.23736179    -0.21700
C105        C  0.09867190  0.50459391  0.24077250    -0.21900
C106        C  0.08987658  0.50470612  0.26275245     0.01100
H107        H  0.11894582  0.45828725  0.22208175     0.14900
H108        H  0.09901604  0.52976121  0.22859571     0.14900
O109        O  0.02898745  0.45954653  0.42138154    -0.83300
O110        O  0.08237115  0.42094969  0.43898070    -0.80300
C111        C  0.05457840  0.39895390  0.45497743     1.00200
O112        O  0.01502081  0.35969771  0.45172740    -0.80400
O113        O  0.93039155  0.29088401  0.43191623    -0.83000
C114        C  0.90141607  0.30779190  0.43061649     1.04700
O115        O  0.91360381  0.34655496  0.41995378    -0.75800
O116        O  0.97077034  0.43107039  0.39662467    -0.76000
C117        C  0.99303829  0.45969633  0.41232794     1.04600
O118        O  0.05257610  0.44292370  0.37752999    -0.83300
O119        O  0.09607460  0.39363265  0.39510749    -0.80400
C120        C  0.09892118  0.35977086  0.40484290     1.00200
O121        O  0.07224137  0.33895580  0.42124418    -0.80400
O122        O  0.98613846  0.27659145  0.39949829    -0.83000
C123        C  0.94638761  0.26224004  0.38922399     1.04700
O124        O  0.92767573  0.28968141  0.38779736    -0.75800
O125        O  0.99137131  0.37391699  0.36597121    -0.76000
C126        C  0.02936514  0.41413777  0.36195172     1.04600
Cr127      Cr  0.06126135  0.42538947  0.40826868     1.93700
Cr128      Cr  0.00165255  0.32032967  0.42503364     1.93200
Cr129      Cr  0.95480051  0.36117940  0.39359342     1.39100
O130        O  0.00572931  0.36875328  0.40891620    -1.21000
N131        N  0.54001912  0.90077951  0.04708056    -0.01400
C132        C  0.54249926  0.86394153  0.05745372     0.01200
C133        C  0.53665668  0.86583658  0.07962842    -0.21700
C134        C  0.52970261  0.90485782  0.08314945    -0.21900
C135        C  0.53147312  0.92556662  0.06299102     0.01100
H136        H  0.53636145  0.84076545  0.09184820     0.14900
H137        H  0.52050844  0.91473851  0.09858441     0.14900
N138        N  0.40601139  0.11722836  0.93958909    -0.01400
C139        C  0.39515185  0.14927113  0.92972443     0.01200
C140        C  0.39634312  0.14571375  0.90737379    -0.21700
C141        C  0.40848947  0.11021906  0.90324294    -0.21900
C142        C  0.41454326  0.09326915  0.92324530     0.01100
H143        H  0.39093561  0.16799963  0.89540728     0.14900
H144        H  0.41579743  0.10055443  0.88734482     0.14900
O145        O  0.58181983  0.93585432  0.87951511    -0.83300
O146        O  0.60908668  0.90101251  0.91469861    -0.80300
C147        C  0.65267125  0.91196250  0.91025682     1.00200
O148        O  0.68719743  0.95517726  0.91254227    -0.80400
O149        O  0.73640090  0.05333239  0.90701060    -0.83000
C150        C  0.73534870  0.06404931  0.88718709     1.04700
O151        O  0.69540896  0.05353555  0.87790308    -0.75800
O152        O  0.59527242  0.00928349  0.87139801    -0.76000
C153        C  0.58391556  0.96639791  0.86562771     1.04600
O154        O  0.53526912  0.97469788  0.90793515    -0.83300
O155        O  0.56888012  0.94568821  0.94319426    -0.80400
C156        C  0.59959449  0.95063286  0.95767298     1.00200
O157        O  0.64405317  0.96603342  0.95278122    -0.80400
O158        O  0.69047347  0.06586298  0.94434806    -0.83000
C159        C  0.70025091  0.10475006  0.93429085     1.04700
O160        O  0.68807125  0.10342704  0.91459071    -0.75800
O161        O  0.58869763  0.05286685  0.91162044    -0.76000
C162        C  0.54529597  0.01800128  0.91264184     1.04600
Cr163      Cr  0.57837519  0.94399493  0.91138055     1.93700
Cr164      Cr  0.68498969  0.00875953  0.92795217     1.93200
Cr165      Cr  0.64084806  0.05036169  0.89521346     1.39100
O166        O  0.63474104  0.00103053  0.91164326    -1.21000
N167        N  0.88546217  0.58025854  0.70819099    -0.01400
C168        C  0.88979828  0.54360957  0.71774695     0.01200
C169        C  0.88270420  0.54294849  0.73992048    -0.21700
C170        C  0.87346675  0.58034208  0.74425128    -0.21900
C171        C  0.87514092  0.60278629  0.72455688     0.01100
H172        H  0.88362448  0.51758636  0.75163330     0.14900
H173        H  0.86392027  0.58859763  0.75997764     0.14900
N174        N  0.75530994  0.79700150  0.60557030    -0.01400
C175        C  0.75061785  0.83275279  0.59523323     0.01200
C176        C  0.75423448  0.82963434  0.57297614    -0.21700
C177        C  0.76153435  0.79079310  0.56932198    -0.21900
C178        C  0.76243021  0.77132080  0.58947858     0.01100
H179        H  0.75260318  0.85368375  0.56074096     0.14900
H180        H  0.76888002  0.78005464  0.55367765     0.14900
N181        N  0.54070641  0.91802755  0.77522396    -0.01400
C182        C  0.50637217  0.92484376  0.76497312     0.01200
C183        C  0.51021010  0.92272914  0.74268504    -0.21700
C184        C  0.54861664  0.91460943  0.73900831    -0.21900
C185        C  0.56668441  0.91154962  0.75922288     0.01100
H186        H  0.48649048  0.92513208  0.73050402     0.14900
H187        H  0.55970314  0.90784983  0.72332810     0.14900
N188        N  0.76100918  0.78522016  0.87734878    -0.01400
C189        C  0.79739112  0.77991046  0.88643859     0.01200
C190        C  0.79671797  0.78288907  0.90882563    -0.21700
C191        C  0.75843699  0.79040089  0.91378434    -0.21900
C192        C  0.73707528  0.79199817  0.89422071     0.01100
H193        H  0.82187370  0.78062902  0.92025151     0.14900
H194        H  0.74933823  0.79738865  0.92986629     0.14900
O195        O  0.75871718  0.72869914  0.72842819    -0.83300
O196        O  0.71588036  0.77779995  0.71060651    -0.80300
C197        C  0.69265575  0.74951233  0.69489580     1.00200
O198        O  0.65321289  0.71043356  0.69856471    -0.80400
O199        O  0.59020803  0.62382363  0.71845247    -0.83000
C200        C  0.60888196  0.59631978  0.71954581     1.04700
O201        O  0.64880830  0.61055041  0.72966874    -0.75800
O202        O  0.73338584  0.67079739  0.75308180    -0.76000
C203        C  0.76188362  0.69456811  0.73761898     1.04600
O204        O  0.74031254  0.75178831  0.77237109    -0.83300
O205        O  0.68978626  0.79294332  0.75420062    -0.80400
C206        C  0.65338981  0.79308147  0.74563688     1.00200
O207        O  0.62904482  0.76316638  0.73060356    -0.80400
O208        O  0.57213250  0.67483714  0.75188780    -0.83000
C209        C  0.56005227  0.63458358  0.76130333     1.04700
O210        O  0.59042417  0.61936512  0.76236785    -0.75800
O211        O  0.67355898  0.68731786  0.78375377    -0.76000
C212        C  0.71193273  0.72717125  0.78784037     1.04600
Cr213      Cr  0.72201841  0.75850115  0.74140365     1.93700
Cr214      Cr  0.61543223  0.69423776  0.72591628     1.93200
Cr215      Cr  0.66232691  0.65124050  0.75618788     1.39100
O216        O  0.66639155  0.70135567  0.74120479    -1.21000
N217        N  0.32252830  0.45302939  0.76976578    -0.01400
C218        C  0.28736996  0.42694081  0.75464579     0.01200
C219        C  0.30498190  0.44360408  0.73392669    -0.21700
C220        C  0.35209959  0.48138642  0.73630275    -0.21900
C221        C  0.36196713  0.48665301  0.75838613     0.01100
H222        H  0.28449731  0.43203016  0.71880478     0.14900
H223        H  0.37614361  0.50378585  0.72335999     0.14900
N224        N  0.96752889  0.24199902  0.87620463    -0.01400
C225        C  0.00125580  0.26770300  0.89187222     0.01200
C226        C  0.98054948  0.25305922  0.91230655    -0.21700
C227        C  0.93274507  0.21725334  0.90912581    -0.21900
C228        C  0.92578367  0.21145969  0.88688940     0.01100
H229        H  0.99920688  0.26451797  0.92785949     0.14900
H230        H  0.90645142  0.19618111  0.92163487     0.14900
O231        O  0.90570139  0.23791966  0.74340071    -0.83300
O232        O  0.96808384  0.27167559  0.70846190    -0.80300
C233        C  0.99644420  0.30258902  0.69476367     1.00200
O234        O  0.02741821  0.34566731  0.70060461    -0.80400
O235        O  0.97463423  0.39375376  0.70674201    -0.83000
C236        C  0.94487615  0.40399643  0.71581456     1.04700
O237        O  0.93172879  0.39146112  0.73530965    -0.75800
O238        O  0.88192917  0.29208042  0.73886344    -0.76000
C239        C  0.87316593  0.24849040  0.73792193     1.04600
O240        O  0.98980071  0.28279822  0.77220930    -0.83300
O241        O  0.05198934  0.30889688  0.73755845    -0.80400
C242        C  0.08465501  0.35135051  0.74338558     1.00200
O243        O  0.07689598  0.38678585  0.74177083    -0.80400
O244        O  0.02974692  0.43842895  0.74473907    -0.83000
C245        C  0.01775054  0.43816193  0.76434206     1.04700
O246        O  0.98674385  0.39889080  0.77343970    -0.75800
O247        O  0.93127629  0.29894139  0.77990608    -0.76000
C248        C  0.96195786  0.28621899  0.78588517     1.04600
Cr249      Cr  0.97888011  0.27985835  0.74036447     1.93700
Cr250      Cr  0.02384699  0.38675736  0.72461434     1.93200
Cr251      Cr  0.93610816  0.34421109  0.75567350     1.39100
O252        O  0.97947126  0.33696927  0.74014363    -1.21000
O253        O  0.29870085  0.41076826  0.87398832    -0.83300
O254        O  0.23750141  0.38451195  0.90913988    -0.80300
C255        C  0.20494633  0.34106722  0.90452669     1.00200
O256        O  0.21371097  0.30639445  0.90676612    -0.80400
O257        O  0.26294313  0.25671205  0.90382879    -0.83000
C258        C  0.27323315  0.25549759  0.88407596     1.04700
O259        O  0.30278292  0.29425784  0.87415698    -0.75800
O260        O  0.35674834  0.39406078  0.86599790    -0.76000
C261        C  0.32629170  0.40722278  0.86020780     1.04600
O262        O  0.38370692  0.45781869  0.90226840    -0.83300
O263        O  0.32278404  0.42540813  0.93756356    -0.80400
C264        C  0.29599037  0.39541687  0.95189255     1.00200
O265        O  0.26554413  0.35159458  0.94690765    -0.80400
O266        O  0.32059765  0.30610312  0.94068838    -0.83000
C267        C  0.34959585  0.29513852  0.93142426     1.04700
O268        O  0.36090907  0.30585137  0.91163942    -0.75800
O269        O  0.40904799  0.40477924  0.90664144    -0.76000
C270        C  0.41694416  0.44807780  0.90757346     1.04600
Cr271      Cr  0.31069186  0.41502072  0.90582325     1.93700
Cr272      Cr  0.26894639  0.30957973  0.92326653     1.93200
Cr273      Cr  0.35416270  0.35094080  0.89081525     1.39100
O274        O  0.31127404  0.35849670  0.90662646    -1.21000
N275        N  0.30388796  0.45180778  0.04117654    -0.01400
C276        C  0.26375234  0.44852240  0.05089451     0.01200
C277        C  0.27031307  0.45379933  0.07315090    -0.21700
C278        C  0.31605674  0.46051540  0.07742031    -0.21900
C279        C  0.33632495  0.45959137  0.05758194     0.01100
H280        H  0.24486754  0.45387070  0.08492724     0.14900
H281        H  0.33395339  0.46864492  0.09319012     0.14900
N282        N  0.65339838  0.59096080  0.93667401    -0.01400
C283        C  0.69666820  0.60617245  0.92636452     0.01200
C284        C  0.69113675  0.60755632  0.90413190    -0.21700
C285        C  0.64285810  0.59303876  0.90042674    -0.21900
C286        C  0.62017373  0.58288358  0.92056262     0.01100
H287        H  0.71881702  0.61586937  0.89189696     0.14900
H288        H  0.62550007  0.58712690  0.88459361     0.14900
O289        O  0.57763349  0.57180652  0.06257615    -0.83300
O290        O  0.66697632  0.61265836  0.04303657    -0.80300
C291        C  0.66148040  0.63670442  0.02760058     1.00200
O292        O  0.66296071  0.67662543  0.03153978    -0.80400
O293        O  0.64642743  0.74322569  0.05216715    -0.83000
C294        C  0.60040797  0.72475111  0.05256036     1.04700
O295        O  0.57455471  0.68497460  0.06252708    -0.75800
O296        O  0.54781991  0.60136115  0.08653862    -0.76000
C297        C  0.54147307  0.57139572  0.07147560     1.04600
O298        O  0.62349367  0.59223494  0.10602355    -0.83300
O299        O  0.71302187  0.64014573  0.08659187    -0.80400
C300        C  0.74882862  0.67464475  0.07696321     1.00200
O301        O  0.74182050  0.69632654  0.06116499    -0.80400
O302        O  0.71685099  0.75592231  0.08459035    -0.83000
C303        C  0.69127615  0.77047964  0.09445414     1.04700
O304        O  0.64513079  0.74329631  0.09506661    -0.75800
O305        O  0.62623840  0.65993363  0.11666926    -0.76000
C306        C  0.62822597  0.62188177  0.12113895     1.04600
Cr307      Cr  0.64530864  0.60808710  0.07453412     1.93700
Cr308      Cr  0.68897147  0.71406677  0.05846993     1.93200
Cr309      Cr  0.60149571  0.67145270  0.08916807     1.39100
O310        O  0.64524225  0.66443062  0.07410269    -1.21000
N311        N  0.63619897  0.10790769  0.71018160    -0.01400
C312        C  0.59346980  0.09506490  0.72034878     0.01200
C313        C  0.59934392  0.09632239  0.74266769    -0.21700
C314        C  0.64755710  0.11017664  0.74644820    -0.21900
C315        C  0.66951606  0.11711643  0.72626306     0.01100
H316        H  0.57185395  0.08940904  0.75482687     0.14900
H317        H  0.66538166  0.11748206  0.76221909     0.14900
N318        N  0.00129089  0.25763199  0.60474660    -0.01400
C319        C  0.04235681  0.26375253  0.59476757     0.01200
C320        C  0.03549168  0.25945628  0.57246171    -0.21700
C321        C  0.98866919  0.25027721  0.56854797    -0.21900
C322        C  0.96819181  0.24904282  0.58859205     0.01100
H323        H  0.06133917  0.26130860  0.56039161     0.14900
H324        H  0.97033374  0.24182708  0.55287797     0.14900
N325        N  0.31324794  0.91204525  0.54331500    -0.01400
C326        C  0.34641368  0.93743705  0.55932316     0.01200
C327        C  0.32477607  0.92184045  0.57956771    -0.21700
C328        C  0.27714362  0.88606589  0.57597292    -0.21900
C329        C  0.27109290  0.88096178  0.55369475     0.01100
H330        H  0.34240737  0.93342665  0.59532340     0.14900
H331        H  0.25000921  0.86538365  0.58825511     0.14900
N332        N  0.66133589  0.14441028  0.43932960    -0.01400
C333        C  0.62568973  0.12427385  0.42387349     0.01200
C334        C  0.64027908  0.15242320  0.40511406    -0.21700
C335        C  0.68623995  0.19104491  0.40907625    -0.21900
C336        C  0.69825345  0.18528153  0.43011960     0.01100
H337        H  0.61926900  0.14594943  0.39024499     0.14900
H338        H  0.70908638  0.21951194  0.39764130     0.14900
O339        O  0.64670667  0.09290607  0.54197896    -0.83300
O340        O  0.58404017  0.06292075  0.57656023    -0.80300
C341        C  0.55176805  0.01982042  0.57116018     1.00200
O342        O  0.56083860  0.98515108  0.57246103    -0.80400
O343        O  0.61072647  0.93581611  0.56914453    -0.83000
C344        C  0.62107256  0.93576491  0.54934834     1.04700
O345        O  0.65009744  0.97518993  0.53973081    -0.75800
O346        O  0.70359048  0.07557182  0.53265448    -0.76000
C347        C  0.67345816  0.08968636  0.52763615     1.04600
O348        O  0.73102015  0.13767313  0.57105179    -0.83300
O349        O  0.66844084  0.10143696  0.60576270    -0.80400
C350        C  0.64048648  0.06983360  0.61930799     1.00200
O351        O  0.61026919  0.02686340  0.61319767    -0.80400
O352        O  0.66725524  0.98310814  0.60640057    -0.83000
C353        C  0.69750288  0.97412142  0.59689138     1.04700
O354        O  0.70832755  0.98552516  0.57710946    -0.75800
O355        O  0.75608352  0.08399104  0.57305954    -0.76000
C356        C  0.76405092  0.12703255  0.57550588     1.04600
Cr357      Cr  0.65766982  0.09417377  0.57378445     1.93700
Cr358      Cr  0.61559746  0.98725298  0.58908501     1.93200
Cr359      Cr  0.70120852  0.03120750  0.55688019     1.39100
O360        O  0.65829214  0.03763111  0.57324169    -1.21000
O361        O  0.25500029  0.90558177  0.39316252    -0.83300
O362        O  0.34601095  0.94755827  0.37511859    -0.80300
C363        C  0.34093182  0.97139067  0.35950371     1.00200
O364        O  0.34011680  0.01025405  0.36341535    -0.80400
O365        O  0.32061646  0.07570417  0.38404910    -0.83000
C366        C  0.27453413  0.05721760  0.38464874     1.04700
O367        O  0.24879681  0.01739595  0.39467059    -0.75800
O368        O  0.22407741  0.93256722  0.41780289    -0.76000
C369        C  0.21849768  0.90443055  0.40205092     1.04600
O370        O  0.29749683  0.92317866  0.43727070    -0.83300
O371        O  0.38819619  0.97354275  0.41912050    -0.80400
C372        C  0.42418173  0.00876018  0.40994238     1.00200
O373        O  0.41773377  0.03077311  0.39407664    -0.80400
O374        O  0.39065087  0.08921747  0.41697619    -0.83000
C375        C  0.36428074  0.10218089  0.42727219     1.04700
O376        O  0.31825368  0.07450143  0.42755470    -0.75800
O377        O  0.30107803  0.99088098  0.44833904    -0.76000
C378        C  0.30225162  0.95232983  0.45260037     1.04600
Cr379      Cr  0.32156718  0.94128376  0.40615234     1.93700
Cr380      Cr  0.36422427  0.04755125  0.39065698     1.93200
Cr381      Cr  0.27611474  0.00294806  0.42103794     1.39100
O382        O  0.32059862  0.99726831  0.40592753    -1.21000
N383        N  0.98215245  0.80807974  0.37391910    -0.01400
C384        C  0.94588938  0.81255937  0.38374352     0.01200
C385        C  0.95825669  0.82701255  0.40517411    -0.21700
C386        C  0.00335827  0.83167056  0.40875040    -0.21900
C387        C  0.01730214  0.81992318  0.38941477     0.01100
H388        H  0.93606987  0.83217803  0.41714683     0.14900
H389        H  0.02438086  0.84356867  0.42372543     0.14900
N390        N  0.33750919  0.92034991  0.26921057    -0.01400
C391        C  0.37854790  0.92654713  0.25920192     0.01200
C392        C  0.37237015  0.92367700  0.23687477    -0.21700
C393        C  0.32594205  0.91560065  0.23288744    -0.21900
C394        C  0.30498776  0.91333031  0.25294364     0.01100
H395        H  0.39856536  0.92626983  0.22482673     0.14900
H396        H  0.30826089  0.90889837  0.21710006     0.14900
N397        N  0.98756846  0.80368143  0.10558042    -0.01400
C398        C  0.95381603  0.78236429  0.08938634     0.01200
C399        C  0.97240505  0.80731667  0.07000105    -0.21700
C400        C  0.01875222  0.84500168  0.07436622    -0.21900
C401        C  0.02709543  0.84190250  0.09625628     0.01100
H402        H  0.95354375  0.79995313  0.05448272     0.14900
H403        H  0.04378190  0.87174155  0.06283091     0.14900
N404        N  0.64790692  0.58593095  0.21173762    -0.01400
C405        C  0.68221365  0.61326299  0.22704069     0.01200
C406        C  0.66386085  0.59647284  0.24767511    -0.21700
C407        C  0.61745251  0.55743963  0.24504382    -0.21900
C408        C  0.60850345  0.55184719  0.22291991     0.01100
H409        H  0.68371001  0.60848765  0.26293752     0.14900
H410        H  0.59344481  0.53434364  0.25782775     0.14900
O411        O  0.97931204  0.76037916  0.20873232    -0.83300
O412        O  0.91945480  0.73373698  0.24392016    -0.80300
C413        C  0.88664997  0.69037863  0.23914888     1.00200
O414        O  0.89549770  0.65563537  0.24100419    -0.80400
O415        O  0.94469882  0.60533835  0.23688228    -0.83000
C416        C  0.95567791  0.60467787  0.21716731     1.04700
O417        O  0.98360697  0.64386991  0.20718227    -0.75800
O418        O  0.03632993  0.74356852  0.19912941    -0.76000
C419        C  0.00511689  0.75639435  0.19421066     1.04600
O420        O  0.06646292  0.80732213  0.23650311    -0.83300
O421        O  0.00598328  0.77394732  0.27182724    -0.80400
C422        C  0.97883292  0.74404271  0.28606457     1.00200
O423        O  0.94899176  0.69994517  0.28107826    -0.80400
O424        O  0.00362966  0.65408794  0.27353322    -0.83000
C425        C  0.03268908  0.64387374  0.26377328     1.04700
O426        O  0.04321820  0.65504195  0.24396060    -0.75800
O427        O  0.09079063  0.75322525  0.23923158    -0.76000
C428        C  0.09936452  0.79652520  0.24114214     1.04600
Cr429      Cr  0.99294645  0.76423605  0.24023381     1.93700
Cr430      Cr  0.95134191  0.65814662  0.25685374     1.93200
Cr431      Cr  0.03529194  0.70021739  0.22364361     1.39100
O432        O  0.99323709  0.70750865  0.24026664    -1.21000
N433        N  0.06986777  0.66920397  0.77077881    -0.01400
C434        C  0.07762414  0.70242803  0.75483797     0.01200
C435        C  0.07624536  0.68234285  0.73462386    -0.21700
C436        C  0.06825157  0.63587080  0.73825085    -0.21900
C437        C  0.06448229  0.62881917  0.76050520     0.01100
H438        H  0.08449505  0.70094456  0.71904096     0.14900
H439        H  0.06730887  0.61061744  0.72607423     0.14900
N440        N  0.22157244  0.02381415  0.87792766    -0.01400
C441        C  0.22699590  0.06405379  0.88832170     0.01200
C442        C  0.22332847  0.05667649  0.91056673    -0.21700
C443        C  0.21531454  0.01014311  0.91401970    -0.21900
C444        C  0.21393195  0.99036929  0.89372702     0.01100
H445        H  0.22427201  0.08171674  0.92285477     0.14900
H446        H  0.20709846  0.99131699  0.92954718     0.14900
O447        O  0.19756013  0.93963859  0.73853923    -0.83300
O448        O  0.23486447  0.00127881  0.77353923    -0.80300
C449        C  0.26646326  0.02824813  0.78734987     1.00200
O450        O  0.30973246  0.05819680  0.78147658    -0.80400
O451        O  0.34947965  0.99802396  0.77603433    -0.83000
C452        C  0.35851766  0.96737732  0.76706892     1.04700
O453        O  0.34665980  0.95497789  0.74739963    -0.75800
O454        O  0.24814777  0.91115782  0.74252573    -0.76000
C455        C  0.20567600  0.90527361  0.74376873     1.04600
O456        O  0.24741177  0.02381384  0.70994446    -0.83300
O457        O  0.27818741  0.08635444  0.74458237    -0.80400
C458        C  0.32178129  0.11647702  0.73889907     1.00200
O459        O  0.35478240  0.10520459  0.74065141    -0.80400
O460        O  0.40031878  0.05183703  0.73861145    -0.83000
C461        C  0.39974915  0.04038230  0.71889565     1.04700
O462        O  0.35996293  0.01227286  0.70932462    -0.75800
O463        O  0.26036359  0.96335682  0.70162594    -0.76000
C464        C  0.24981736  0.99587068  0.69598725     1.04600
Cr465      Cr  0.24373233  0.01245505  0.74170608     1.93700
Cr466      Cr  0.34921760  0.05025967  0.75800054     1.93200
Cr467      Cr  0.30278942  0.96366004  0.72638819     1.39100
O468        O  0.29854052  0.00867481  0.74199801    -1.21000
N469        N  0.78623930  0.02212541  0.37549660    -0.01400
C470        C  0.76438183  0.98518339  0.39028020     0.01200
C471        C  0.79225992  0.99645729  0.40910658    -0.21700
C472        C  0.83230419  0.04176142  0.40605291    -0.21900
C473        C  0.82775122  0.05683158  0.38544959     0.01100
H474        H  0.78422640  0.97392535  0.42355719     0.14900
H475        H  0.86048524  0.06260913  0.41799680     0.14900
N476        N  0.55893252  0.67959386  0.27270679    -0.01400
C477        C  0.58466125  0.71340486  0.25705433     0.01200
C478        C  0.56940089  0.69288954  0.23658963    -0.21700
C479        C  0.53309317  0.64526164  0.23968351    -0.21900
C480        C  0.52751023  0.63803146  0.26190741     0.01100
H481        H  0.58102669  0.71152433  0.22106335     0.14900
H482        H  0.51184519  0.61914359  0.22710873     0.14900
N483        N  0.08218082  0.69600451  0.04334017    -0.01400
C484        C  0.05795431  0.66285131  0.05936141     0.01200
C485        C  0.07443663  0.68428263  0.07958374    -0.21700
C486        C  0.10985425  0.73201202  0.07590875    -0.21900
C487        C  0.11375928  0.73813122  0.05360179     0.01100
H488        H  0.06410099  0.66628000  0.09529016     0.14900
H489        H  0.13137531  0.75903884  0.08813640     0.14900
N490        N  0.87188087  0.34081563  0.93959648    -0.01400
C491        C  0.89595553  0.37380870  0.92350510     0.01200
C492        C  0.87792520  0.35264790  0.90337379    -0.21700
C493        C  0.84155768  0.30534190  0.90720366    -0.21900
C494        C  0.83875363  0.29912595  0.92952061     0.01100
H495        H  0.88762651  0.37077948  0.88768224     0.14900
H496        H  0.81870024  0.27872963  0.89509059     0.14900
N497        N  0.76398328  0.01074684  0.10672595    -0.01400
C498        C  0.76226545  0.97309186  0.09525310     0.01200
C499        C  0.77102418  0.98513117  0.07344354    -0.21700
C500        C  0.77850585  0.03172934  0.07133359    -0.21900
C501        C  0.77408437  0.04674925  0.09191551     0.01100
H502        H  0.77183317  0.96234449  0.06046058     0.14900
H503        H  0.78875460  0.05341745  0.05655294     0.14900
N504        N  0.88857542  0.36695461  0.21090481    -0.01400
C505        C  0.89802880  0.40913814  0.22088541     0.01200
C506        C  0.89405637  0.40306647  0.24317888    -0.21700
C507        C  0.88183295  0.35539156  0.24717763    -0.21900
C508        C  0.87881993  0.33382822  0.22716301     0.01100
H509        H  0.89924123  0.43035777  0.25519703     0.14900
H510        H  0.87408148  0.33778304  0.26298548     0.14900
O511        O  0.87300943  0.27952088  0.07319158    -0.83300
O512        O  0.90644943  0.34359682  0.10709146    -0.80300
C513        C  0.93750125  0.37123949  0.12090150     1.00200
O514        O  0.98084538  0.40182326  0.11525523    -0.80400
O515        O  0.02962925  0.35046130  0.10767509    -0.83000
C516        C  0.04186128  0.32285054  0.09801789     1.04700
O517        O  0.02888492  0.31001934  0.07852707    -0.75800
O518        O  0.92952642  0.25846213  0.07658722    -0.76000
C519        C  0.88589154  0.24874017  0.07894635     1.04600
O520        O  0.91446231  0.36312074  0.04339930    -0.83300
O521        O  0.94171637  0.42657700  0.07752575    -0.80400
C522        C  0.98445367  0.45990396  0.07239158     1.00200
O523        O  0.02023414  0.45280939  0.07430258    -0.80400
O524        O  0.07256858  0.40698428  0.06954785    -0.83000
C525        C  0.07138655  0.39517494  0.04979157     1.04700
O526        O  0.03175426  0.36397636  0.04092908    -0.75800
O527        O  0.93156138  0.30547146  0.03545746    -0.76000
C528        C  0.91792578  0.33550841  0.02963722     1.04600
Cr529      Cr  0.91354502  0.35333141  0.07525252     1.93700
Cr530      Cr  0.02135191  0.39962795  0.09054916     1.93200
Cr531      Cr  0.97912011  0.31257041  0.05910129     1.39100
O532        O  0.97136210  0.35524057  0.07501059    -1.21000
O533        O  0.73232718  0.01311476  0.27390426    -0.83300
O534        O  0.70411638  0.95008169  0.23969214    -0.80300
C535        C  0.66137270  0.91711581  0.24510492     1.00200
O536        O  0.62575575  0.92453280  0.24315047    -0.80400
O537        O  0.57330821  0.97095948  0.24589461    -0.83000
C538        C  0.57218809  0.98105781  0.26565558     1.04700
O539        O  0.61095661  0.01098854  0.27550817    -0.75800
O540        O  0.71087185  0.06699808  0.28342726    -0.76000
C541        C  0.72755729  0.03881459  0.28827455     1.04600
O542        O  0.77431664  0.09697570  0.24484295    -0.83300
O543        O  0.74066011  0.03382042  0.21023236    -0.80400
C544        C  0.71028537  0.00483745  0.19652274     1.00200
O545        O  0.66717921  0.97408728  0.20228154    -0.80400
O546        O  0.61984214  0.02799517  0.20884185    -0.83000
C547        C  0.60865378  0.05675123  0.21827089     1.04700
O548        O  0.62005567  0.06858813  0.23801518    -0.75800
O549        O  0.71873354  0.11965136  0.24286329    -0.76000
C550        C  0.76226528  0.12901576  0.24050181     1.04600
Cr551      Cr  0.73306452  0.02345280  0.24216828     1.93700
Cr552      Cr  0.62606809  0.97787869  0.22627988     1.93200
Cr553      Cr  0.66654915  0.06341836  0.25870069     1.39100
O554        O  0.67534456  0.02179844  0.24238168    -1.21000
O555        O  0.05780810  0.69354499  0.87540065    -0.83300
O556        O  0.09351654  0.75429336  0.91077124    -0.80300
C557        C  0.08540830  0.78828988  0.90504961     1.00200
O558        O  0.04283765  0.78223464  0.90588362    -0.80400
O559        O  0.94508072  0.73846727  0.90028151    -0.83000
C560        C  0.93449110  0.72656776  0.88053059     1.04700
O561        O  0.94233407  0.69478845  0.87189640    -0.75800
O562        O  0.98351940  0.63583759  0.86701744    -0.76000
C563        C  0.02675461  0.66647854  0.86141880     1.04600
O564        O  0.01480883  0.60843622  0.90396639    -0.83300
O565        O  0.04333746  0.67032242  0.93900463    -0.80400
C566        C  0.04016678  0.69834577  0.95270061     1.00200
O567        O  0.02884462  0.73011692  0.94683528    -0.80400
O568        O  0.92917501  0.68133517  0.93840788    -0.83000
C569        C  0.88991634  0.65282726  0.92851129     1.04700
O570        O  0.89067326  0.64048558  0.90904174    -0.75800
O571        O  0.93767284  0.58768604  0.90749850    -0.76000
C572        C  0.97136999  0.57729164  0.90930402     1.04600
Cr573      Cr  0.04797162  0.68182962  0.90720321     1.93700
Cr574      Cr  0.98752594  0.72969546  0.92173960     1.93200
Cr575      Cr  0.94280529  0.64276831  0.89014369     1.39100
O576        O  0.99266181  0.68473953  0.90646873    -1.21000
N577        N  0.44357337  0.34235477  0.44224141    -0.01400
C578        C  0.44705469  0.30536941  0.43258922     0.01200
C579        C  0.46455741  0.31809944  0.41161038    -0.21700
C580        C  0.47220417  0.36435437  0.40809095    -0.21900
C581        C  0.45912199  0.37861915  0.42701798     0.01100
H582        H  0.46974597  0.29546033  0.39988439     0.14900
H583        H  0.48657749  0.38576543  0.39336428     0.14900
N584        N  0.55584878  0.69993343  0.54604962    -0.01400
C585        C  0.56622723  0.74292219  0.55546665     0.01200
C586        C  0.56607098  0.73912745  0.57788752    -0.21700
C587        C  0.55534794  0.69206113  0.58252301    -0.21900
C588        C  0.54920714  0.66868904  0.56275381     0.01100
H589        H  0.57220084  0.76733104  0.58957411     0.14900
H590        H  0.54970894  0.67578032  0.59857203     0.14900
O591        O  0.54658913  0.61713923  0.42271046    -0.83300
O592        O  0.58447773  0.70821389  0.44039008    -0.80300
C593        C  0.60828389  0.70406751  0.45627608     1.00200
O594        O  0.64867567  0.70603847  0.45286327    -0.80400
O595        O  0.71694600  0.68955120  0.43333002    -0.83000
C596        C  0.69927566  0.64356807  0.43319372     1.04700
O597        O  0.66016053  0.61666298  0.42287834    -0.75800
O598        O  0.57626102  0.58785265  0.39858038    -0.76000
C599        C  0.54703055  0.58120127  0.41400221     1.04600
O600        O  0.56475630  0.65898522  0.37847819    -0.83300
O601        O  0.61093516  0.74986343  0.39620351    -0.80400
C602        C  0.64531332  0.78688671  0.40524543     1.00200
O603        O  0.66713448  0.78208386  0.42163907    -0.80400
O604        O  0.72898450  0.75783318  0.39977932    -0.83000
C605        C  0.74362805  0.73242077  0.38980228     1.04700
O606        O  0.71771761  0.68615665  0.39000525    -0.75800
O607        O  0.63430236  0.66576588  0.36814897    -0.76000
C608        C  0.59540412  0.66601136  0.36353336     1.04600
Cr609      Cr  0.58053015  0.68367359  0.40953048     1.93700
Cr610      Cr  0.68667244  0.73079801  0.42587521     1.93200
Cr611      Cr  0.64608516  0.64200607  0.39589293     1.39100
O612        O  0.63778293  0.68550284  0.41045074    -1.21000
N613        N  0.44526130  0.35511151  0.71139673    -0.01400
C614        C  0.42272773  0.31980234  0.72682010     0.01200
C615        C  0.44744829  0.33519686  0.74646653    -0.21700
C616        C  0.48629320  0.38133188  0.74312971    -0.21900
C617        C  0.48414236  0.39266840  0.72155258     0.01100
H618        H  0.43912930  0.31428290  0.76143486     0.14900
H619        H  0.51276176  0.40456873  0.75523287     0.14900
N620        N  0.21075378  0.01253672  0.60589989    -0.01400
C621        C  0.23554477  0.04720744  0.59049247     0.01200
C622        C  0.21555819  0.02970239  0.57010801    -0.21700
C623        C  0.17738438  0.98297287  0.57302175    -0.21900
C624        C  0.17533386  0.97347521  0.59506659     0.01100
H625        H  0.22585475  0.04983825  0.55490091     0.14900
H626        H  0.15333491  0.95868468  0.56048421     0.14900
O627        O  0.40775954  0.36672352  0.54410362    -0.83300
O628        O  0.44205589  0.42988292  0.57849367    -0.80300
C629        C  0.43024251  0.46279143  0.57608857     1.00200
O630        O  0.38732706  0.45389209  0.57986853    -0.80400
O631        O  0.29012295  0.40602759  0.57286005    -0.83000
C632        C  0.28161373  0.39833662  0.55266237     1.04700
O633        O  0.29171998  0.36940195  0.54262770    -0.75800
O634        O  0.33365424  0.31031416  0.53519040    -0.76000
C635        C  0.37773036  0.33882882  0.53002689     1.04600
O636        O  0.36747224  0.28256090  0.57364853    -0.83300
O637        O  0.39929625  0.34547814  0.60786167    -0.80400
C638        C  0.39248514  0.36867306  0.62280252     1.00200
O639        O  0.37467475  0.39604479  0.61860337    -0.80400
O640        O  0.27559962  0.34265677  0.60894059    -0.83000
C641        C  0.23699301  0.31615840  0.59822234     1.04700
O642        O  0.23922878  0.30903979  0.57816472    -0.75800
O643        O  0.28899400  0.25936798  0.57510149    -0.76000
C644        C  0.32354305  0.25054225  0.57802516     1.04600
Cr645      Cr  0.39926381  0.35625903  0.57605370     1.93700
Cr646      Cr  0.33327924  0.39633472  0.59370779     1.93200
Cr647      Cr  0.29307067  0.31542376  0.55913169     1.39100
O648        O  0.34222675  0.35625343  0.57632272    -1.21000
C649        C  0.27244659  0.17754715  0.60119487     0.25700
C650        C  0.31087745  0.20128684  0.58610351    -0.22500
C651        C  0.33194258  0.17520323  0.57700325     0.20600
C652        C  0.31095723  0.12479015  0.58090150     0.25600
C653        C  0.26908803  0.10005014  0.59410157    -0.22400
C654        C  0.25167664  0.12732517  0.60514377     0.20500
F655        F  0.21062511  0.10453505  0.61748871    -0.12400
F656        F  0.25264545  0.20236274  0.61096671    -0.14700
F657        F  0.32832483  0.09909377  0.57001400    -0.14700
F658        F  0.36930477  0.19717499  0.56256775    -0.12400
C659        C  0.38599846  0.35346075  0.68438902     0.25700
C660        C  0.43036313  0.35475134  0.68910936    -0.22500
C661        C  0.46192474  0.35986195  0.67193731     0.20600
C662        C  0.44929402  0.36349914  0.65033118     0.25600
C663        C  0.40551846  0.36371377  0.64559931    -0.22400
C664        C  0.37394361  0.35856245  0.66285913     0.20500
F665        F  0.33107581  0.35782647  0.65883212    -0.12400
F666        F  0.35535949  0.34927172  0.70078678    -0.14700
F667        F  0.48066435  0.36854786  0.63410628    -0.14700
F668        F  0.50510997  0.36147904  0.67619711    -0.12400
C669        C  0.53811919  0.70418466  0.50692743     0.25700
C670        C  0.56266592  0.69336746  0.52335906    -0.22500
C671        C  0.59877141  0.68191905  0.51744841     0.20600
C672        C  0.61224110  0.68389182  0.49567102     0.25600
C673        C  0.59011871  0.69789004  0.47914104    -0.22400
C674        C  0.55163039  0.70640721  0.48498659     0.20500
F675        F  0.52808235  0.71840167  0.46965454    -0.12400
F676        F  0.50160210  0.71337318  0.51221655    -0.14700
F677        F  0.64780571  0.67286868  0.49093290    -0.14700
F678        F  0.62323109  0.67166833  0.53300792    -0.12400
C679        C  0.54380839  0.58878591  0.57291548     0.25700
C680        C  0.52525117  0.61471683  0.56118686    -0.22500
C681        C  0.47828495  0.58889976  0.55198975     0.20600
C682        C  0.44909754  0.53866249  0.55563728     0.25600
C683        C  0.46594902  0.51313018  0.56877874    -0.22400
C684        C  0.51454139  0.53809543  0.57646513     0.20500
F685        F  0.53233106  0.51443109  0.58878501    -0.12400
F686        F  0.58919369  0.61315825  0.58201324    -0.14700
F687        F  0.40316526  0.51524272  0.54709134    -0.14700
F688        F  0.45861205  0.61310953  0.54138522    -0.12400
C689        C  0.45083245  0.44809741  0.41290199     0.25700
C690        C  0.46782312  0.42915736  0.42953244    -0.22500
C691        C  0.50487326  0.46197331  0.44366443     0.20600
C692        C  0.52775229  0.51265281  0.43982696     0.25600
C693        C  0.51415622  0.53088924  0.42172352    -0.22400
C694        C  0.47415512  0.49854432  0.40890382     0.20500
F695        F  0.46024727  0.51550307  0.39145915    -0.12400
F696        F  0.41509461  0.41723561  0.39900250    -0.14700
F697        F  0.56643554  0.54351736  0.45244238    -0.14700
F698        F  0.52315268  0.44495093  0.45937662    -0.12400
C699        C  0.38281689  0.34120983  0.46802452     0.25700
C700        C  0.42743078  0.34250945  0.46418324    -0.22500
C701        C  0.45494387  0.34117666  0.48200952     0.20600
C702        C  0.43901813  0.34030667  0.50340733     0.25600
C703        C  0.39434256  0.33910568  0.50735048    -0.22400
C704        C  0.36592638  0.33859232  0.48940622     0.20500
F705        F  0.32220471  0.33644653  0.49259599    -0.12400
F706        F  0.35501129  0.34100987  0.45099200    -0.14700
F707        F  0.46651756  0.33909492  0.52027730    -0.14700
F708        F  0.49751905  0.34109804  0.47859443    -0.12400
C709        C  0.88067384  0.36908522  0.14996002     0.25700
C710        C  0.92315561  0.36779139  0.14399336    -0.22500
C711        C  0.95179556  0.36254026  0.16030086     0.20600
C712        C  0.93866532  0.35946136  0.18224431     0.25600
C713        C  0.89735551  0.36261851  0.18826671    -0.22400
C714        C  0.86835663  0.36736221  0.17199495     0.20500
F715        F  0.82840162  0.37071509  0.17753616    -0.12400
F716        F  0.85224623  0.37391361  0.13451951    -0.14700
F717        F  0.96739489  0.35549795  0.19777572    -0.14700
F718        F  0.99227519  0.35994050  0.15492929    -0.12400
C719        C  0.81602108  0.25209210  0.21248849     0.25700
C720        C  0.85847879  0.28013101  0.22500900    -0.22500
C721        C  0.87355115  0.25589836  0.23991027     0.20600
C722        C  0.84402548  0.20559750  0.24393211     0.25600
C723        C  0.79897581  0.17875120  0.23308058    -0.22400
C724        C  0.78654840  0.20181671  0.21650646     0.20500
F725        F  0.74430144  0.17607212  0.20499497    -0.12400
F726        F  0.80003255  0.27395232  0.19808548    -0.14700
F727        F  0.85719707  0.18433119  0.25989006    -0.14700
F728        F  0.91498964  0.28187111  0.25191584    -0.12400
C729        C  0.80178024  0.17410709  0.08012135     0.25700
C730        C  0.85033230  0.19993030  0.08778950    -0.22500
C731        C  0.86692967  0.17627023  0.10226514     0.20600
C732        C  0.83801145  0.12621447  0.10659523     0.25600
C733        C  0.79214108  0.09901864  0.09648210    -0.22400
C734        C  0.77296321  0.12380380  0.08436711     0.20500
F735        F  0.72831302  0.09815158  0.07469675    -0.12400
F736        F  0.78404867  0.19607772  0.06666839    -0.14700
F737        F  0.85766383  0.10328426  0.11821284    -0.14700
F738        F  0.91275707  0.20083123  0.11095069    -0.12400
C739        C  0.69538429  0.00912471  0.15675185     0.25700
C740        C  0.72482942  0.00664735  0.17347818    -0.22500
C741        C  0.76790459  0.00601426  0.16792342     0.20600
C742        C  0.78077703  0.00705197  0.14596030     0.25600
C743        C  0.75168680  0.01042226  0.12933296    -0.22400
C744        C  0.70912789  0.01175500  0.13490945     0.20500
F745        F  0.68015332  0.01417270  0.11904669    -0.12400
F746        F  0.65371452  0.00993979  0.16161395    -0.14700
F747        F  0.82179507  0.00524040  0.14087064    -0.14700
F748        F  0.79666105  0.00295715  0.18372847    -0.12400
C749        C  0.85224040  0.34087262  0.97849799     0.25700
C750        C  0.88526538  0.34482814  0.96223846    -0.22500
C751        C  0.92912336  0.34635409  0.96824006     0.20600
C752        C  0.93929041  0.34253287  0.99015584     0.25600
C753        C  0.90631089  0.33851301  0.00650052    -0.22400
C754        C  0.86308929  0.33865246  0.00053122     0.20500
F755        F  0.83053797  0.33466850  0.01596861    -0.12400
F756        F  0.80922879  0.33839240  0.97294238    -0.14700
F757        F  0.98162230  0.34323061  0.99544316    -0.14700
F758        F  0.96100046  0.34927241  0.95268698    -0.12400
C759        C  0.96771860  0.45520301  0.91435232     0.25700
C760        C  0.92390705  0.42760430  0.92598720    -0.22500
C761        C  0.90008266  0.45135836  0.93469178     0.20600
C762        C  0.91722301  0.50082134  0.93019883     0.25600
C763        C  0.95878741  0.52763884  0.91699187    -0.22400
C764        C  0.98543296  0.50505994  0.91009717     0.20500
F765        F  0.02627158  0.52997731  0.89774871    -0.12400
F766        F  0.99129620  0.43291651  0.90572880    -0.14700
F767        F  0.89156350  0.52180669  0.93790112    -0.14700
F768        F  0.85705543  0.42546798  0.94547061    -0.12400
C769        C  0.03360224  0.53521427  0.05017844     0.25700
C770        C  0.99443234  0.50865991  0.06465811    -0.22500
C771        C  0.96962670  0.53151800  0.07335099     0.20600
C772        C  0.98724665  0.58152501  0.06955075     0.25600
C773        C  0.02939331  0.60904814  0.05680882    -0.22400
C774        C  0.05098833  0.58494771  0.04633833     0.20500
F775        F  0.09247173  0.61054849  0.03447530    -0.12400
F776        F  0.05716388  0.51370820  0.04075764    -0.14700
F777        F  0.96559643  0.60406661  0.07973577    -0.14700
F778        F  0.93134917  0.50683399  0.08711462    -0.12400
C779        C  0.10521466  0.69811613  0.00474178     0.25700
C780        C  0.07011724  0.69127218  0.02050730    -0.22500
C781        C  0.02449371  0.68470529  0.01378015     0.20600
C782        C  0.01474956  0.68688432  0.99165761     0.25600
C783        C  0.05011622  0.69449352  0.97590009    -0.22400
C784        C  0.09503977  0.69907746  0.98254253     0.20500
F785        F  0.12975963  0.70656892  0.96758831    -0.12400
F786        F  0.14939427  0.70421883  0.01090414    -0.14700
F787        F  0.97074073  0.68150166  0.98558656    -0.14700
F788        F  0.99025843  0.67835349  0.02878354    -0.12400
C789        C  0.62503501  0.69291226  0.32525910     0.25700
C790        C  0.58618888  0.67392912  0.34043662    -0.22500
C791        C  0.53923406  0.66285735  0.33313777     0.20600
C792        C  0.53084765  0.66774616  0.31104608     0.25600
C793        C  0.56895780  0.68321430  0.29579343    -0.22400
C794        C  0.61635755  0.69715785  0.30321917     0.20500
F795        F  0.65395425  0.71253279  0.28890585    -0.12400
F796        F  0.67162936  0.70695984  0.33160872    -0.14700
F797        F  0.48532412  0.65700826  0.30449435    -0.14700
F798        F  0.50104541  0.64597360  0.34719205    -0.12400
C799        C  0.59411223  0.79196507  0.27111936     0.25700
C800        C  0.61431756  0.76723767  0.26002700    -0.22500
C801        C  0.65655197  0.79460898  0.24726848     0.20600
C802        C  0.67516559  0.84492439  0.24387991     0.25600
C803        C  0.65120085  0.86829458  0.25290641    -0.22400
C804        C  0.61245454  0.84205632  0.26762211     0.20500
F805        F  0.59024339  0.86430601  0.27760657    -0.12400
F806        F  0.55307928  0.76680182  0.28331216    -0.14700
F807        F  0.71355521  0.86951751  0.23015618    -0.14700
F808        F  0.67734263  0.77174817  0.23664933    -0.12400
C809        C  0.69198786  0.85204686  0.37792775     0.25700
C810        C  0.66201872  0.83626586  0.39652508    -0.22500
C811        C  0.65673333  0.87049525  0.40901382     0.20600
C812        C  0.68496241  0.92044906  0.40434102     0.25600
C813        C  0.71997050  0.93681804  0.38755672    -0.22400
C814        C  0.72101867  0.90226379  0.37346898     0.20500
F815        F  0.75474918  0.91703425  0.35730716    -0.12400
F816        F  0.69758219  0.81928359  0.36567811    -0.14700
F817        F  0.68274922  0.95325781  0.41794648    -0.14700
F818        F  0.62759481  0.85585186  0.42689478    -0.12400
C819        C  0.72376631  0.01898344  0.34960073     0.25700
C820        C  0.77043523  0.02474322  0.35361325    -0.22500
C821        C  0.80291609  0.03591619  0.33606935     0.20600
C822        C  0.78905807  0.04107512  0.31493193     0.25600
C823        C  0.74270834  0.03604174  0.31091847    -0.22400
C824        C  0.71016242  0.02504464  0.32844580     0.20500
F825        F  0.66472591  0.01878323  0.32496203    -0.12400
F826        F  0.69193770  0.00878622  0.36626850    -0.14700
F827        F  0.82126360  0.05171824  0.29835534    -0.14700
F828        F  0.84798497  0.04115450  0.33941693    -0.17800
C829        C  0.37245371  0.18753264  0.71469915     0.25700
C830        C  0.33625233  0.16626678  0.73093847    -0.22500
C831        C  0.32055676  0.19547200  0.74155049     0.20600
C832        C  0.34499903  0.24619877  0.73791046     0.25600
C833        C  0.38482577  0.26810660  0.72340559    -0.22400
C834        C  0.39645061  0.23805160  0.71091131     0.20500
F835        F  0.43527947  0.25811333  0.69715731    -0.12400
F836        F  0.38729438  0.15983002  0.70367906    -0.14700
F837        F  0.33326258  0.27464479  0.75022925    -0.14700
F838        F  0.28557140  0.17597518  0.75718076    -0.12400
C839        C  0.19052783  0.01125607  0.64477468     0.25700
C840        C  0.22284632  0.01322868  0.62858646    -0.22500
C841        C  0.26407366  0.00966277  0.63463103     0.20600
C842        C  0.27235563  0.00308362  0.65652845     0.25600
C843        C  0.24015918  0.00131937  0.67280259    -0.22400
C844        C  0.19965471  0.00640720  0.66677080     0.20500
F845        F  0.16799915  0.00493017  0.68211437    -0.12400
F846        F  0.14982388  0.01340892  0.63917195    -0.14700
F847        F  0.31223057  0.99916180  0.66188162    -0.14700
F848        F  0.29509592  0.01047352  0.61913152    -0.12400
C849        C  0.28410189  0.02239352  0.82658988     0.25700
C850        C  0.25329282  0.02507620  0.81058634    -0.22500
C851        C  0.21036598  0.02488883  0.81704614     0.20600
C852        C  0.19953865  0.02404014  0.83921649     0.25600
C853        C  0.23014494  0.02086824  0.85513890    -0.22400
C854        C  0.27217690  0.01956357  0.84866277     0.20500
F855        F  0.30282030  0.01786569  0.86387021    -0.12400
F856        F  0.32559226  0.02210600  0.82082325    -0.14700
F857        F  0.15929976  0.02643197  0.84521913    -0.14700
F858        F  0.18001399  0.02745876  0.80193944    -0.12400
C859        C  0.14787285  0.91198786  0.87825639     0.25700
C860        C  0.19096740  0.93671303  0.89074789    -0.22500
C861        C  0.20345787  0.90944166  0.90508229     0.20600
C862        C  0.17084645  0.85949141  0.90859754     0.25600
C863        C  0.12536438  0.83638815  0.89782967    -0.22400
C864        C  0.11557239  0.86225084  0.88168587     0.20500
F865        F  0.07277339  0.84014344  0.87030238    -0.12400
F866        F  0.13346472  0.93680258  0.86482537    -0.14700
F867        F  0.18153289  0.83523011  0.92408351    -0.14700
F868        F  0.24506963  0.93229844  0.91724067    -0.12400
C869        C  0.14372201  0.78086543  0.77018164     0.25700
C870        C  0.10069791  0.75614242  0.75766537    -0.22500
C871        C  0.08814335  0.78337898  0.74333934     0.20600
C872        C  0.12049856  0.83348302  0.73997670     0.25600
C873        C  0.16586820  0.85680419  0.75084794    -0.22400
C874        C  0.17592232  0.83069985  0.76681117     0.20500
F875        F  0.21885900  0.85270486  0.77808847    -0.12400
F876        F  0.15796713  0.75592029  0.78366237    -0.14700
F877        F  0.10972262  0.85773540  0.72452331    -0.14700
F878        F  0.04660279  0.76042943  0.73113531    -0.12400
C879        C  0.02524596  0.68217028  0.80043367     0.25700
C880        C  0.06254215  0.67305183  0.79367535    -0.22500
C881        C  0.08954463  0.66370823  0.80945576     0.20600
C882        C  0.07882251  0.66275121  0.83163903     0.25600
C883        C  0.04041444  0.67025792  0.83828414    -0.22400
C884        C  0.01398335  0.68039063  0.82254668     0.20500
F885        F  0.97721048  0.68858169  0.82861627    -0.12400
F886        F  0.99828612  0.69058430  0.78548216    -0.14700
F887        F  0.10456762  0.65256830  0.84655868    -0.14700
F888        F  0.12625082  0.65550670  0.80333625    -0.12400
C889        C  0.89087110  0.52099635  0.20747527     0.25700
C890        C  0.94079511  0.55644741  0.20767134    -0.22500
C891        C  0.97598321  0.54125746  0.20664190     0.20600
C892        C  0.96144701  0.49137895  0.20805781     0.25600
C893        C  0.91169753  0.45640459  0.21036634    -0.22400
C894        C  0.87638837  0.47122225  0.20884693     0.20500
F895        F  0.82817733  0.43799834  0.21146193    -0.12400
F896        F  0.85640239  0.53488989  0.20873270    -0.14700
F897        F  0.99611216  0.47781504  0.21006637    -0.14700
F898        F  0.02450389  0.57482157  0.20767957    -0.12400
C899        C  0.76366213  0.68621069  0.23583657     0.25700
C900        C  0.73589786  0.64306888  0.22361704    -0.22500
C901        C  0.76014988  0.62104753  0.21365762     0.20600
C902        C  0.80991832  0.63847830  0.21777087     0.25600
C903        C  0.83680554  0.67875029  0.23174875    -0.22400
C904        C  0.81386528  0.70421321  0.23972746     0.20500
F905        F  0.83872665  0.74381989  0.25283576    -0.12400
F906        F  0.74118213  0.70857084  0.24546917    -0.14700
F907        F  0.83119987  0.61410700  0.20896639    -0.14700
F908        F  0.73453191  0.57912021  0.20202470    -0.12400
C909        C  0.98459284  0.81709166  0.14484460     0.25700
C910        C  0.98533309  0.78794912  0.12777163    -0.22500
C911        C  0.99183096  0.74786607  0.13256801     0.20600
C912        C  0.99919271  0.73800708  0.15414085     0.25600
C913        C  0.99873685  0.76736912  0.17130567    -0.22400
C914        C  0.99026460  0.80638012  0.16646382     0.20500
F915        F  0.98944677  0.83537874  0.18260388    -0.12400
F916        F  0.97948679  0.85665982  0.14042864    -0.14700
F917        F  0.00631787  0.69954270  0.15827197    -0.14700
F918        F  0.99366509  0.71998453  0.11617161    -0.12400
C919        C  0.43917857  0.89988420  0.26682903     0.25700
C920        C  0.42431829  0.93479930  0.26977260    -0.22500
C921        C  0.45762823  0.98088481  0.27843061     0.20600
C922        C  0.50703291  0.99411092  0.28124352     0.25600
C923        C  0.52314425  0.96128237  0.27526365    -0.22400
C924        C  0.48811831  0.91277876  0.26993703     0.20500
F925        F  0.50265199  0.88010662  0.26449825    -0.12400
F926        F  0.40736963  0.85493624  0.25865713    -0.14700
F927        F  0.54004205  0.04114260  0.28647434    -0.14700
F928        F  0.44376906  0.01500676  0.28147847    -0.12400
C929        C  0.17363660  0.82052803  0.26401457     0.25700
C930        C  0.14922759  0.83380190  0.24839977    -0.22500
C931        C  0.17535944  0.87942986  0.23794903     0.20600
C932        C  0.22613953  0.90855108  0.24126289     0.25600
C933        C  0.25128764  0.89270574  0.25526403    -0.22400
C934        C  0.22411729  0.84962432  0.26740090     0.20500
F935        F  0.24703250  0.83257023  0.28065979    -0.12400
F936        F  0.14902746  0.77749735  0.27503098    -0.14700
F937        F  0.25142165  0.95046783  0.22954575    -0.14700
F938        F  0.15282375  0.89361387  0.22302975    -0.12400
C939        C  0.81362874  0.72679042  0.37292608     0.25700
C940        C  0.79380009  0.75588861  0.38029386    -0.22500
C941        C  0.82516886  0.80692704  0.38179030     0.20600
C942        C  0.87576302  0.82703244  0.37931512     0.25600
C943        C  0.89594410  0.79664339  0.37543178    -0.22400
C944        C  0.86436934  0.74705109  0.37063990     0.20500
F945        F  0.88263258  0.71678383  0.36663880    -0.12400
F946        F  0.78470412  0.67774313  0.37004984    -0.14700
F947        F  0.90563324  0.87554065  0.38327126    -0.14700
F948        F  0.80770773  0.83698065  0.38766122    -0.12400
C949        C  0.98781876  0.75163371  0.34772085     0.25700
C950        C  0.98286306  0.79290802  0.35184689    -0.22500
C951        C  0.97824409  0.81894071  0.33420610     0.20600
C952        C  0.97797288  0.80360739  0.31276440     0.25600
C953        C  0.98096250  0.76117826  0.30866338    -0.22400
C954        C  0.98628545  0.73552515  0.32630971     0.20500
F955        F  0.99106573  0.69550320  0.32275953    -0.12400
F956        F  0.99279894  0.72622193  0.36451719    -0.14700
F957        F  0.97357225  0.82949540  0.29600058    -0.14700
F958        F  0.97485084  0.85970833  0.33780279    -0.12400
C959        C  0.43734105  0.18291520  0.43755407     0.25700
C960        C  0.38612082  0.15248342  0.43641930    -0.22500
C961        C  0.35613504  0.17336073  0.44048601     0.20600
C962        C  0.37682295  0.22416355  0.44244760     0.25600
C963        C  0.42763965  0.25479687  0.44065409    -0.22400
C964        C  0.45784079  0.23366322  0.43961178     0.20500
F965        F  0.50721817  0.26270367  0.43821160    -0.12400
F966        F  0.46768350  0.16420784  0.43482621    -0.14700
F967        F  0.34670833  0.24353185  0.44306311    -0.14700
F968        F  0.30650406  0.14552748  0.44011453    -0.12400
C969        C  0.13634003  0.83028723  0.40564642     0.25700
C970        C  0.16876181  0.87200856  0.39379330    -0.22500
C971        C  0.15076119  0.88847620  0.37665937     0.20600
C972        C  0.10022374  0.86674745  0.37300761     0.25600
C973        C  0.06738878  0.82816128  0.38641509    -0.22400
C974        C  0.08589305  0.80816201  0.40183173     0.20500
F975        F  0.05474155  0.77044523  0.41477978    -0.12400
F976        F  0.15320066  0.81366841  0.42213768    -0.14700
F977        F  0.08342845  0.88762094  0.35844330    -0.14700
F978        F  0.18176190  0.92901465  0.36510352    -0.12400
C979        C  0.34555246  0.90493227  0.30832167     0.25700
C980        C  0.33329647  0.92863168  0.29200757    -0.22500
C981        C  0.32121192  0.96420060  0.29809499     0.20600
C982        C  0.32265973  0.97707308  0.31994982     0.25600
C983        C  0.33689188  0.95499306  0.33640395    -0.22400
C984        C  0.34750486  0.91803794  0.33030611     0.20500
F985        F  0.36092668  0.89533576  0.34546725    -0.12400
F986        F  0.35582074  0.86918195  0.30293263    -0.14700
F987        F  0.31057887  0.01181370  0.32484884    -0.14700
F988        F  0.31031279  0.98839472  0.28266429    -0.12400
C989        C  0.55344613  0.85205053  0.54329937     0.25700
C990        C  0.60261353  0.88730239  0.53935492    -0.22500
C991        C  0.63633454  0.87155480  0.53460436     0.20600
C992        C  0.62271424  0.82202436  0.53714091     0.25600
C993        C  0.57532692  0.78819063  0.54422704    -0.22400
C994        C  0.53998467  0.80282959  0.54588112     0.20500
F995        F  0.49392401  0.77052322  0.55267273    -0.12400
F996        F  0.52030527  0.86638956  0.54808166    -0.14700
F997        F  0.65732010  0.80837980  0.53550708    -0.14700
F998        F  0.68418127  0.90489887  0.53111109    -0.12400
C999        C  0.65778091  0.15518061  0.47879094     0.25700
C1000       C  0.66068427  0.12810521  0.46133400    -0.22500
C1001       C  0.66778518  0.08818890  0.46564258     0.20600
C1002       C  0.67319285  0.07629841  0.48717759     0.25600
C1003       C  0.66970738  0.10312555  0.50476613    -0.22400
C1004       C  0.66129490  0.14231151  0.50031415     0.20500
F1005       F  0.65809674  0.16923822  0.51680177    -0.12400
F1006       F  0.65177047  0.19438477  0.47486681    -0.14700
F1007       F  0.68105997  0.03813240  0.49084375    -0.14700
F1008       F  0.67109007  0.06185426  0.44892775    -0.12400
C1009       C  0.55756550  0.04630447  0.40978940     0.25700
C1010       C  0.57550099  0.08239300  0.42616998    -0.22500
C1011       C  0.54205080  0.08646953  0.43987126     0.20600
C1012       C  0.49160616  0.05822361  0.43584295     0.25600
C1013       C  0.47426586  0.02621394  0.41794375    -0.22400
C1014       C  0.50726188  0.01877701  0.40554004     0.20500
F1015       F  0.49107610  0.98773693  0.38827060    -0.12400
F1016       F  0.58920474  0.04153105  0.39640643    -0.14700
F1017       F  0.46005766  0.06601455  0.44792406    -0.14700
F1018       F  0.55813767  0.12208225  0.45524453    -0.12400
C1019       C  0.42687597  0.95259152  0.54451752     0.25700
C1020       C  0.40037686  0.96892860  0.55693792    -0.22500
C1021       C  0.42631850  0.00888205  0.57120808     0.20600
C1022       C  0.47678174  0.02851250  0.57469206     0.25600
C1023       C  0.50203640  0.00831012  0.56403361    -0.22400
C1024       C  0.47721228  0.97211910  0.54804481     0.20500
F1025       F  0.50127234  0.95363868  0.53664749    -0.12400
F1026       F  0.40345753  0.91414327  0.53069600    -0.14700
F1027       F  0.49978907  0.06401621  0.58993936    -0.14700
F1028       F  0.40201698  0.02644612  0.58304415    -0.12400
C1029       C  0.32611398  0.96959050  0.51364415     0.25700
C1030       C  0.31691585  0.92324073  0.52038027    -0.22500
C1031       C  0.30513397  0.88657340  0.50464516     0.20600
C1032       C  0.30108343  0.89578016  0.48253127     0.25600
C1033       C  0.30860448  0.94195528  0.47578970    -0.22400
C1034       C  0.32219718  0.97901665  0.49169592     0.20500
F1035       F  0.33104233  0.02456694  0.48619629    -0.12400
F1036       F  0.33621953  0.00511040  0.52859453    -0.14700
F1037       F  0.28847986  0.85909163  0.46791273    -0.14700
F1038       F  0.29700204  0.84164923  0.51078420    -0.12400
C1039       C  0.12278652  0.31696385  0.61332507     0.25700
C1040       C  0.08799412  0.27082633  0.60517963    -0.22500
C1041       C  0.10236311  0.23586118  0.60105087     0.20600
C1042       C  0.15173407  0.24885040  0.60214055     0.25600
C1043       C  0.18756563  0.29697533  0.60749405    -0.22400
C1044       C  0.17248080  0.32996377  0.61457900     0.20500
F1045       F  0.20634615  0.37687222  0.61957077    -0.12400
F1046       F  0.10980629  0.35143395  0.61728067    -0.14700
F1047       F  0.16526607  0.21635341  0.59516206    -0.14700
F1048       F  0.06931975  0.19091301  0.59328794    -0.12400
C1049       C  0.88843754  0.18204442  0.60231605     0.25700
C1050       C  0.91442592  0.22671777  0.59111924    -0.22500
C1051       C  0.88836404  0.24221799  0.57756513     0.20600
C1052       C  0.83802875  0.21154199  0.57374237     0.25600
C1053       C  0.81333459  0.16462704  0.58317154    -0.22400
C1054       C  0.83841797  0.15133642  0.59838402     0.20500
F1055       F  0.81508645  0.10702939  0.60847421    -0.12400
F1056       F  0.91233608  0.16518186  0.61501550    -0.14700
F1057       F  0.81472524  0.22577323  0.55925605    -0.14700
F1058       F  0.91258591  0.28533730  0.56659790    -0.12400
C1059       C  0.51179224  0.03543328  0.70553285     0.25700
C1060       C  0.54695422  0.08422776  0.70995607    -0.22500
C1061       C  0.53275583  0.11998933  0.71083237     0.20600
C1062       C  0.48316861  0.10615732  0.71021195     0.25600
C1063       C  0.44739443  0.05643285  0.70867667    -0.22400
C1064       C  0.46198718  0.02145127  0.70490804     0.20500
F1065       F  0.42808243  0.97303873  0.70407306    -0.12400
F1066       F  0.52522921  0.00060124  0.70461370    -0.14700
F1067       F  0.46981886  0.14039657  0.71411634    -0.14700
F1068       F  0.56642354  0.16737077  0.71516601    -0.12400
C1069       C  0.63785159  0.13222413  0.67167511     0.25700
C1070       C  0.64141669  0.10145920  0.68736843    -0.22500
C1071       C  0.64556304  0.06117269  0.68056568     0.20600
C1072       C  0.64558602  0.05129250  0.65838822     0.25600
C1073       C  0.64258276  0.08225483  0.64260656    -0.22400
C1074       C  0.63949273  0.12330605  0.64939357     0.20500
F1075       F  0.63575345  0.15331084  0.63448617    -0.12400
F1076       F  0.63219588  0.17042752  0.67798516    -0.14700
F1077       F  0.64853281  0.01137114  0.65228630    -0.14700
F1078       F  0.64733424  0.03016736  0.69552412    -0.12400
C1079       C  0.68370610  0.84076160  0.10952914     0.25700
C1080       C  0.71379974  0.82204819  0.10220779    -0.22500
C1081       C  0.76374602  0.85531050  0.09833334     0.20600
C1082       C  0.78122538  0.90577360  0.09879493     0.25600
C1083       C  0.74946882  0.92394986  0.10337084    -0.22400
C1084       C  0.70137831  0.89132786  0.10990200     0.20500
F1085       F  0.66970724  0.90786269  0.11398549    -0.12400
F1086       F  0.63572907  0.81034165  0.11425283    -0.14700
F1087       F  0.82810601  0.93689079  0.09260030    -0.14700
F1088       F  0.79476446  0.83932585  0.09205643    -0.12400
C1089       C  0.83036940  0.68097090  0.07196936     0.25700
C1090       C  0.79941088  0.69159441  0.08427896    -0.22500
C1091       C  0.81927485  0.72581015  0.10131230     0.20600
C1092       C  0.87008098  0.75213581  0.10481449     0.25600
C1093       C  0.90159924  0.74406862  0.09145956    -0.22400
C1094       C  0.88104342  0.70669374  0.07565386     0.20500
F1095       F  0.91055722  0.69819253  0.06245709    -0.12400
F1096       F  0.81187108  0.64820814  0.05537207    -0.14700
F1097       F  0.88854151  0.78946167  0.11938177    -0.14700
F1098       F  0.78989789  0.73719248  0.11312785    -0.12400
C1099       C  0.64970814  0.65011854  0.16006374     0.25700
C1100       C  0.63588435  0.61264758  0.14433849    -0.22500
C1101       C  0.63003840  0.56718045  0.15118045     0.20600
C1102       C  0.63637898  0.55907808  0.17317424     0.25600
C1103       C  0.64875295  0.59613178  0.18876195    -0.22400
C1104       C  0.65602510  0.64183270  0.18193027     0.20500
F1105       F  0.66677183  0.67781913  0.19672198    -0.12400
F1106       F  0.65668657  0.69497309  0.15446007    -0.14700
F1107       F  0.62997715  0.51479313  0.17933464    -0.14700
F1108       F  0.61705034  0.53008036  0.13675639    -0.12400
C1109       C  0.82831645  0.67237270  0.94360830     0.25700
C1110       C  0.84132084  0.63696549  0.93794068    -0.22500
C1111       C  0.80409040  0.58850101  0.93416278     0.20600
C1112       C  0.75522435  0.57705689  0.93315293     0.25600
C1113       C  0.74279359  0.61372980  0.93614901    -0.22400
C1114       C  0.77905155  0.66071501  0.94266519     0.20500
F1115       F  0.76747253  0.69653043  0.94561062    -0.12400
F1116       F  0.86354930  0.71966075  0.94692933    -0.14700
F1117       F  0.72061426  0.53149091  0.92668860    -0.14700
F1118       F  0.81565060  0.55369793  0.92861911    -0.12400
C1119       C  0.66521384  0.57399273  0.97514573     0.25700
C1120       C  0.64803905  0.59540250  0.95977920    -0.22500
C1121       C  0.63128595  0.62661125  0.96716930     0.20600
C1122       C  0.63413872  0.63845317  0.98924490     0.25600
C1123       C  0.65430532  0.61961962  0.00456877    -0.22400
C1124       C  0.66861454  0.58617711  0.99731862     0.20500
F1125       F  0.68786661  0.56688117  0.01146076    -0.12400
F1126       F  0.67930505  0.54170923  0.96863731    -0.14700
F1127       F  0.61796213  0.66936116  0.99548277    -0.14700
F1128       F  0.61479547  0.64808201  0.95277488    -0.12400
C1129       C  0.15477160  0.46287746  0.04240855     0.25700
C1130       C  0.11887565  0.41379435  0.03885972    -0.22500
C1131       C  0.13355268  0.38011548  0.03242645     0.20600
C1132       C  0.18326535  0.39353194  0.03316354     0.25600
C1133       C  0.21820913  0.44057766  0.04024503    -0.22400
C1134       C  0.20419050  0.47615062  0.04315570     0.20500
F1135       F  0.23773753  0.52221175  0.04951111    -0.12400
F1136       F  0.14151229  0.49625851  0.04828553    -0.14700
F1137       F  0.19630598  0.35889287  0.02989047    -0.14700
F1138       F  0.09957237  0.33243268  0.02895087    -0.12400
C1139       C  0.46341558  0.49160902  0.07489332     0.25700
C1140       C  0.49119420  0.53653457  0.06417532    -0.22500
C1141       C  0.46889996  0.55061213  0.04794664     0.20600
C1142       C  0.41857336  0.52189355  0.04362856     0.25600
C1143       C  0.38980748  0.47873554  0.05558008    -0.22400
C1144       C  0.41314408  0.46276145  0.07054601     0.20500
F1145       F  0.38634148  0.42114692  0.08228215    -0.12400
F1146       F  0.48427695  0.47733472  0.09060338    -0.14700
F1147       F  0.39719780  0.53924581  0.02962352    -0.14700
F1148       F  0.49514834  0.59411238  0.03746041    -0.12400
C1149       C  0.20690704  0.17004652  0.88048852     0.25700
C1150       C  0.25426776  0.20654308  0.87444761    -0.22500
C1151       C  0.28760288  0.19246968  0.86681373     0.20600
C1152       C  0.27647238  0.14352225  0.86874569     0.25600
C1153       C  0.23191560  0.10872719  0.87809520    -0.22400
C1154       C  0.19595948  0.12149572  0.88246713     0.20500
F1155       F  0.15229097  0.08803543  0.89116744    -0.12400
F1156       F  0.17375509  0.18256458  0.88760583    -0.14700
F1157       F  0.31147211  0.13160753  0.86421605    -0.14700
F1158       F  0.33347369  0.22692267  0.86075879    -0.12400
C1159       C  0.54240800  0.51117579  0.93402489     0.25700
C1160       C  0.56590284  0.55554810  0.92240496    -0.22500
C1161       C  0.53774596  0.56728548  0.90821535     0.20600
C1162       C  0.48837649  0.53340259  0.90414640     0.25600
C1163       C  0.46617374  0.48732868  0.91434893    -0.22400
C1164       C  0.49298002  0.47746027  0.93005952     0.20500
F1165       F  0.47184871  0.43402723  0.94089332    -0.12400
F1166       F  0.56820879  0.49804344  0.94755629    -0.14700
F1167       F  0.46366469  0.54403503  0.88884718    -0.14700
F1168       F  0.55909630  0.61027215  0.89703319    -0.12400
C1169       C  0.30819700  0.38553834  0.99144948     0.25700
C1170       C  0.30005136  0.41147806  0.97476302    -0.22500
C1171       C  0.29599655  0.45271497  0.98013612     0.20600
C1172       C  0.29899753  0.46714163  0.00193404     0.25600
C1173       C  0.30707745  0.44114623  0.01862840    -0.22400
C1174       C  0.31220146  0.40058890  0.01317558     0.20500
F1175       F  0.31864964  0.37415022  0.02906754    -0.12400
F1176       F  0.31242747  0.34567163  0.98667353    -0.14700
F1177       F  0.29342298  0.50613693  0.00683411    -0.14700
F1178       F  0.28705629  0.47770329  0.96436399    -0.12400
C1179       C  0.08418040  0.52286624  0.76960509     0.25700
C1180       C  0.03618744  0.48625721  0.77468305    -0.22500
C1181       C  0.00217909  0.50011936  0.78154942     0.20600
C1182       C  0.01340045  0.54903366  0.77948335     0.25600
C1183       C  0.05874199  0.58395947  0.77084353    -0.22400
C1184       C  0.09520759  0.57140897  0.76743611     0.20500
F1185       F  0.13969605  0.60511824  0.75954030    -0.12400
F1186       F  0.11803937  0.51047017  0.76343264    -0.14700
F1187       F  0.97797776  0.56085226  0.78312199    -0.14700
F1188       F  0.95575773  0.46549940  0.78678682    -0.12400
C1189       C  0.75170322  0.13005674  0.73704735     0.25700
C1190       C  0.72340847  0.14341956  0.72387422    -0.22500
C1191       C  0.74667648  0.18854641  0.71286908     0.20600
C1192       C  0.79636214  0.22139163  0.71640778     0.25600
C1193       C  0.82368030  0.20990587  0.73113558    -0.22400
C1194       C  0.80155395  0.16297843  0.74060596     0.20500
F1195       F  0.82690677  0.15051805  0.75476258    -0.12400
F1196       F  0.73011972  0.08649860  0.74777997    -0.14700
F1197       F  0.81716873  0.26563813  0.70626033    -0.14700
F1198       F  0.72043415  0.20341184  0.70061758    -0.12400
C1199       C  0.99510208  0.24596009  0.66572251     0.25700
C1200       C  0.99434187  0.28874509  0.67164817    -0.22500
C1201       C  0.99326316  0.31950449  0.65521509     0.20600
C1202       C  0.99375252  0.30809785  0.63324483     0.25600
C1203       C  0.99669201  0.26656160  0.62734310    -0.22400
C1204       C  0.99743280  0.23557096  0.64369579     0.20500
F1205       F  0.00042667  0.19535529  0.63826378    -0.12400
F1206       F  0.99550121  0.21532491  0.68126688    -0.14700
F1207       F  0.99321974  0.33855258  0.61764024    -0.14700
F1208       F  0.99132413  0.36042745  0.66047014    -0.12400
C1209       C  0.97144326  0.22385663  0.83733359     0.25700
C1210       C  0.97012102  0.25457195  0.85352850    -0.22500
C1211       C  0.96600269  0.29541823  0.84741923     0.20600
C1212       C  0.96273646  0.30529785  0.82542889     0.25600
C1213       C  0.96495500  0.27517004  0.80910995    -0.22400
C1214       C  0.97025004  0.23482982  0.81524033     0.20500
F1215       F  0.97231131  0.20499186  0.79986148    -0.12400
F1216       F  0.97285389  0.18279506  0.84293564    -0.14700
F1217       F  0.95802873  0.34471108  0.82007048    -0.14700
F1218       F  0.96322008  0.32460520  0.86292419    -0.12400
C1219       C  0.08337018  0.33861197  0.90089940     0.25700
C1220       C  0.05504965  0.29512512  0.88906689    -0.22500
C1221       C  0.07832312  0.27143796  0.87968769     0.20600
C1222       C  0.12801703  0.28850204  0.88360024     0.25600
C1223       C  0.15541608  0.32946839  0.89710150    -0.22400
C1224       C  0.13330008  0.35589602  0.90478017     0.20500
F1225       F  0.15873932  0.39588992  0.91760734    -0.12400
F1226       F  0.06167822  0.36212114  0.91017150    -0.14700
F1227       F  0.14869222  0.26322044  0.87511111    -0.14700
F1228       F  0.05198201  0.22851245  0.86888471    -0.12400
C1229       C  0.20988836  0.41785947  0.76952263     0.25700
C1230       C  0.23406435  0.39681233  0.75862653    -0.22500
C1231       C  0.20620764  0.35415239  0.74618357     0.20600
C1232       C  0.15602542  0.33615155  0.74268327     0.25600
C1233       C  0.13333218  0.36120660  0.75129998    -0.22400
C1234       C  0.15995068  0.40020022  0.76589288     0.20500
F1235       F  0.13833285  0.42339174  0.77556306    -0.12400
F1236       F  0.23555674  0.45925968  0.78147463    -0.14700
F1237       F  0.13101903  0.29732726  0.72917706    -0.14700
F1238       F  0.22865412  0.33273428  0.73573153    -0.12400
C1239       C  0.32699074  0.47521411  0.80875522     0.25700
C1240       C  0.32118280  0.44125747  0.79256412    -0.22500
C1241       C  0.31572713  0.39575956  0.79878154     0.20600
C1242       C  0.31756508  0.38488555  0.82078954     0.25600
C1243       C  0.32347282  0.41879695  0.83703481    -0.22400
C1244       C  0.32717545  0.46368971  0.83088048     0.20500
F1245       F  0.33250363  0.49691591  0.84626220    -0.12400
F1246       F  0.33206348  0.51925119  0.80309062    -0.14700
F1247       F  0.31285777  0.34087026  0.82628536    -0.14700
F1248       F  0.31010328  0.36244432  0.78339358    -0.12400
C1249       C  0.52826706  0.52412884  0.70869226     0.25700
C1250       C  0.57924946  0.54452443  0.71228562    -0.22500
C1251       C  0.59866519  0.51269131  0.71336546     0.20600
C1252       C  0.56731363  0.46190142  0.71365678     0.25600
C1253       C  0.51629606  0.44217256  0.71275786    -0.22400
C1254       C  0.49713839  0.47338741  0.70911952     0.20500
F1255       F  0.44791045  0.45526323  0.70879408    -0.12400
F1256       F  0.50748068  0.55297944  0.70727969    -0.14700
F1257       F  0.58646825  0.43199955  0.71681785    -0.14700
F1258       F  0.64752563  0.53052758  0.71605367    -0.12400
C1259       C  0.47124055  0.61206511  0.76247099     0.25700
C1260       C  0.50822478  0.60095817  0.76796118    -0.22500
C1261       C  0.49383068  0.55319246  0.77575346     0.20600
C1262       C  0.44445673  0.51624167  0.77522081     0.25600
C1263       C  0.40872077  0.52643756  0.76715249    -0.22400
C1264       C  0.42208129  0.57505608  0.76197995     0.20500
F1265       F  0.38781262  0.58575038  0.75437513    -0.12400
F1266       F  0.48270395  0.65756379  0.75551913    -0.14700
F1267       F  0.43241017  0.46952926  0.78032706    -0.14700
F1268       F  0.52775621  0.54080785  0.78202157    -0.12400
C1269       C  0.88295495  0.80740716  0.87573005     0.25700
C1270       C  0.83329059  0.77140352  0.87479025    -0.22500
C1271       C  0.82006048  0.72415598  0.86756933     0.20600
C1272       C  0.85619468  0.71103072  0.86472273     0.25600
C1273       C  0.90540843  0.74504837  0.86950074    -0.22400
C1274       C  0.91899621  0.79438117  0.87283250     0.20500
F1275       F  0.96658047  0.82815308  0.87679468    -0.12400
F1276       F  0.89632165  0.85375781  0.88202885    -0.14700
F1277       F  0.84223726  0.66322400  0.86123774    -0.14700
F1278       F  0.77213182  0.68917715  0.86621702    -0.12400
C1279       C  0.76850746  0.78644930  0.81640381     0.25700
C1280       C  0.72373237  0.74443581  0.81088409    -0.22500
C1281       C  0.68991466  0.71904405  0.82775741     0.20600
C1282       C  0.70112580  0.73452466  0.84942210     0.25600
C1283       C  0.74617537  0.77548302  0.85483676    -0.22400
C1284       C  0.77954215  0.80162617  0.83815105     0.20500
F1285       F  0.82345681  0.84132576  0.84305784    -0.12400
F1286       F  0.80234087  0.81228080  0.80090527    -0.14700
F1287       F  0.66920623  0.70760693  0.86537753    -0.14700
F1288       F  0.64621162  0.67840922  0.82349976    -0.12400
C1289       C  0.47759302  0.97823631  0.78133488     0.25700
C1290       C  0.46780629  0.93123866  0.77533361    -0.22500
C1291       C  0.41904484  0.89325906  0.77354544     0.20600
C1292       C  0.38073540  0.90359742  0.77470755     0.25600
C1293       C  0.39099045  0.95208966  0.77750549    -0.22400
C1294       C  0.43919049  0.98859956  0.78262271     0.20500
F1295       F  0.45012123  0.03582346  0.78531632    -0.12400
F1296       F  0.52456824  0.01536169  0.78308051    -0.14700
F1297       F  0.33429628  0.86755850  0.77028597    -0.14700
F1298       F  0.40899337  0.84739839  0.76802214    -0.12400
C1299       C  0.66095200  0.87609156  0.74499395     0.25700
C1300       C  0.63835933  0.82808140  0.75316911    -0.22500
C1301       C  0.59774967  0.81187104  0.76698445     0.20600
C1302       C  0.57769624  0.84197771  0.77130624     0.25600
C1303       C  0.59773963  0.88862625  0.76167934    -0.22400
C1304       C  0.64063118  0.90612820  0.74913395     0.20500
F1305       F  0.66051900  0.95089054  0.73950231    -0.12400
F1306       F  0.70044211  0.89251239  0.73171691    -0.14700
F1307       F  0.53540933  0.82325448  0.78278765    -0.14700
F1308       F  0.57556171  0.76560621  0.77514597    -0.12400
C1309       C  0.77824490  0.92037037  0.60154668     0.25700
C1310       C  0.74298807  0.87113904  0.60523809    -0.22500
C1311       C  0.69655376  0.85975591  0.61296464     0.20600
C1312       C  0.68342482  0.89638157  0.61398718     0.25600
C1313       C  0.71663366  0.94439810  0.60709103    -0.22400
C1314       C  0.76524092  0.95680367  0.60257280     0.20500
F1315       F  0.79828985  0.00307495  0.59624180    -0.12400
F1316       F  0.82366124  0.93228488  0.59440867    -0.14700
F1317       F  0.63625290  0.88336106  0.61844520    -0.14700
F1318       F  0.66205030  0.81241361  0.61672970    -0.12400
C1319       C  0.70628349  0.73705168  0.63387413     0.25700
C1320       C  0.74448110  0.78374763  0.62825803    -0.22500
C1321       C  0.76733795  0.81886435  0.64480769     0.20600
C1322       C  0.75100338  0.80805189  0.66645412     0.25600
C1323       C  0.71131414  0.76166368  0.67202832    -0.22400
C1324       C  0.68989826  0.72603803  0.65541157     0.20500
F1325       F  0.65254059  0.68031375  0.65983948    -0.12400
F1326       F  0.68296291  0.70269588  0.61821178    -0.14700
F1327       F  0.77349097  0.84343358  0.68178995    -0.14700
F1328       F  0.80531483  0.86389917  0.63992626    -0.12400
C1329       C  0.86552755  0.45864631  0.70708842     0.25700
C1330       C  0.90126108  0.50851365  0.70703211    -0.22500
C1331       C  0.95026204  0.52201826  0.70300950     0.20600
C1332       C  0.96429129  0.48606153  0.70223540     0.25600
C1333       C  0.92922254  0.43638689  0.70544712    -0.22400
C1334       C  0.87941399  0.42277429  0.70626971     0.20500
F1335       F  0.84483268  0.37504494  0.70909308    -0.12400
F1336       F  0.81777537  0.44485480  0.71057729    -0.14700
F1337       F  0.01273959  0.50034277  0.70173476    -0.14700
F1338       F  0.98519934  0.57007533  0.70273813    -0.12400
C1339       C  0.87057256  0.67478197  0.73842111     0.25700
C1340       C  0.85666461  0.63789166  0.72251921    -0.22500
C1341       C  0.81595604  0.62664798  0.70911468     0.20600
C1342       C  0.78708511  0.64838280  0.71300954     0.25600
C1343       C  0.79837840  0.68136162  0.73035353    -0.22400
C1344       C  0.84133555  0.69595377  0.74245560     0.20500
F1345       F  0.85314552  0.72822939  0.75912313    -0.12400
F1346       F  0.91023609  0.68716839  0.75134542    -0.14700
F1347       F  0.74558075  0.63389609  0.70112238    -0.14700
F1348       F  0.80064610  0.59057398  0.69399724    -0.12400
C1349       C  0.79391610  0.14392930  0.87087225     0.25700
C1350       C  0.78265760  0.09608680  0.87664965    -0.22500
C1351       C  0.82095781  0.08574681  0.87948589     0.20600
C1352       C  0.86955323  0.12381817  0.87966471     0.25600
C1353       C  0.88022605  0.17250844  0.87712713    -0.22400
C1354       C  0.84264336  0.18216446  0.87132872     0.20500
F1355       F  0.85239056  0.22908901  0.86889289    -0.12400
F1356       F  0.75754419  0.15492890  0.86821411    -0.14700
F1357       F  0.90567618  0.11391494  0.88511111    -0.14700
F1358       F  0.81097197  0.03972762  0.88478935    -0.12400
C1359       C  0.71729542  0.18929741  0.94023756     0.25700
C1360       C  0.73128546  0.15373226  0.94373998    -0.22500
C1361       C  0.78072137  0.16909828  0.94845808     0.20600
C1362       C  0.81634002  0.21878394  0.94664369     0.25600
C1363       C  0.80267592  0.25313265  0.94010977    -0.22400
C1364       C  0.75281667  0.23869554  0.93835242     0.20500
F1365       F  0.73894913  0.27165791  0.93232791    -0.12400
F1366       F  0.66981816  0.17540809  0.93571526    -0.14700
F1367       F  0.86447244  0.23238359  0.94856196    -0.14700
F1368       F  0.79542311  0.13554995  0.95150921    -0.12400
C1369       C  0.70100761  0.88799275  0.88625874     0.25700
C1370       C  0.66489573  0.87477242  0.90241809    -0.22500
C1371       C  0.64545621  0.82850722  0.91233034     0.20600
C1372       C  0.66544714  0.79829423  0.90774318     0.25600
C1373       C  0.70458061  0.81359896  0.89294860    -0.22400
C1374       C  0.72052657  0.85767019  0.88151515     0.20500
F1375       F  0.75895450  0.87428589  0.86760765    -0.12400
F1376       F  0.71952425  0.93185441  0.87589514    -0.14700
F1377       F  0.64931705  0.75582623  0.91904028    -0.14700
F1378       F  0.61047409  0.81455908  0.92788891    -0.12400
C1379       C  0.60420833  0.98433419  0.82615808     0.25700
C1380       C  0.57322854  0.95245895  0.84240444    -0.22500
C1381       C  0.53215117  0.90785368  0.83617935     0.20600
C1382       C  0.52180570  0.89589130  0.81405015     0.25600
C1383       C  0.55336218  0.92741603  0.79792499    -0.22400
C1384       C  0.59459073  0.97162712  0.80413775     0.20500
F1385       F  0.62421269  0.00349872  0.78871384    -0.12400
F1386       F  0.64401649  0.02773694  0.83162844    -0.14700
F1387       F  0.48057013  0.85405732  0.80828531    -0.14700
F1388       F  0.50092885  0.87698151  0.85146844    -0.12400
C1389       C  0.41406389  0.27390350  0.93924026     0.25700
C1390       C  0.36528966  0.26293475  0.94187334    -0.22500
C1391       C  0.32931682  0.21456594  0.94699612     0.20600
C1392       C  0.34064625  0.17672066  0.94612741     0.25600
C1393       C  0.38798861  0.18717113  0.94039561    -0.22400
C1394       C  0.42536456  0.23619169  0.93859103     0.20500
F1395       F  0.47158111  0.24696886  0.93335958    -0.12400
F1396       F  0.44947943  0.32032989  0.93440723    -0.14700
F1397       F  0.30418927  0.12950757  0.94806747    -0.14700
F1398       F  0.28180157  0.20286871  0.94933973    -0.12400
C1399       C  0.48416654  0.08377906  0.93730003     0.25700
C1400       C  0.44050788  0.06478293  0.92515006    -0.22500
C1401       C  0.42877127  0.02564106  0.91069369     0.20600
C1402       C  0.46138744  0.00793168  0.90753783     0.25600
C1403       C  0.50647057  0.02934954  0.91865936    -0.22400
C1404       C  0.51672213  0.06624642  0.93409534     0.20500
F1405       F  0.55974989  0.08733449  0.94530352    -0.12400
F1406       F  0.49824431  0.12301552  0.95050293    -0.14700
F1407       F  0.45085633  0.97301637  0.89220560    -0.14700
F1408       F  0.38728957  0.00696335  0.89842212    -0.12400
C1409       C  0.51629572  0.77660815  0.05213477     0.25700
C1410       C  0.55006899  0.82581428  0.04750645    -0.22500
C1411       C  0.59552892  0.83802560  0.03848898     0.20600
C1412       C  0.60953270  0.80238967  0.03685500     0.25600
C1413       C  0.57868268  0.75458163  0.04495817    -0.22400
C1414       C  0.53033480  0.74104460  0.05080723     0.20500
F1415       F  0.49846183  0.69493443  0.05775569    -0.12400
F1416       F  0.47153329  0.76406137  0.06035403    -0.14700
F1417       F  0.65546631  0.81633510  0.02975017    -0.14700
F1418       F  0.62880433  0.88540839  0.03398303    -0.12400
C1419       C  0.54038839  0.89403105  0.98586119     0.25700
C1420       C  0.58326435  0.93810477  0.98066809    -0.22500
C1421       C  0.60996410  0.97064567  0.99763665     0.20600
C1422       C  0.59413484  0.95936012  0.01930676     0.25600
C1423       C  0.55207554  0.91480546  0.02453130    -0.22400
C1424       C  0.52539985  0.88216889  0.00762921     0.20500
F1425       F  0.48498003  0.83867022  0.01228433    -0.12400
F1426       F  0.51399618  0.86164002  0.96991574    -0.14700
F1427       F  0.62115266  0.99089555  0.03539940    -0.14700
F1428       F  0.65113749  0.01370288  0.99319495    -0.12400
C1429       C  0.86673556  0.18909107  0.37814336     0.25700
C1430       C  0.91788733  0.21082653  0.38146794    -0.22500
C1431       C  0.93930049  0.18072587  0.38095666     0.20600
C1432       C  0.90974555  0.12981064  0.37960809     0.25600
C1433       C  0.85850507  0.10821485  0.37854177    -0.22400
C1434       C  0.83740012  0.13822011  0.37676053     0.20500
F1435       F  0.78791765  0.11824218  0.37653534    -0.12400
F1436       F  0.84409810  0.21630470  0.37861761    -0.14700
F1437       F  0.93081837  0.10125893  0.38126258    -0.14700
F1438       F  0.98844899  0.20013570  0.38340464    -0.12400
C1439       C  0.76821129  0.26671662  0.43984846     0.25700
C1440       C  0.74809137  0.21567244  0.43893404    -0.22500
C1441       C  0.77916140  0.19573086  0.44043426     0.20600
C1442       C  0.82992835  0.22642482  0.44049403     0.25600
C1443       C  0.85039312  0.27770104  0.43850442    -0.22400
C1444       C  0.81905945  0.29763318  0.43966139     0.20500
F1445       F  0.83736474  0.34684649  0.43875130    -0.12400
F1446       F  0.73851825  0.28657790  0.43877441    -0.14700
F1447       F  0.85853630  0.20531898  0.43971542    -0.14700
F1448       F  0.76077701  0.14664239  0.43875254    -0.12400
C1449       C  0.11380906  0.59067327  0.27119934     0.25700
C1450       C  0.07843384  0.54074241  0.27247938    -0.22500
C1451       C  0.02969270  0.52725896  0.27715969     0.20600
C1452       C  0.01552615  0.56309024  0.27792640     0.25600
C1453       C  0.04997343  0.61252484  0.27376442    -0.22400
C1454       C  0.09965931  0.62634403  0.27175361     0.20500
F1455       F  0.13355263  0.67377448  0.26764908    -0.12400
F1456       F  0.16125736  0.60444399  0.26688851    -0.14700
F1457       F  0.96713561  0.54865800  0.27936242    -0.14700
F1458       F  0.99485233  0.47919159  0.27808564    -0.12400
C1459       C  0.10238059  0.48742050  0.31248174     0.25700
C1460       C  0.08009324  0.45355424  0.29549432    -0.22500
C1461       C  0.04113398  0.40668982  0.30035723     0.20600
C1462       C  0.02438458  0.39390386  0.32181069     0.25600
C1463       C  0.04651661  0.42787430  0.33899488    -0.22400
C1464       C  0.08586693  0.47486816  0.33396411     0.20500
F1465       F  0.10811147  0.50921042  0.34973871    -0.12400
F1466       F  0.14030796  0.53287765  0.30822005    -0.14700
F1467       F  0.98612910  0.34830976  0.32560787    -0.14700
F1468       F  0.01786369  0.37394322  0.28410161    -0.12400
C1469       C  0.28159947  0.13750918  0.37381596     0.25700
C1470       C  0.25208593  0.08629120  0.37658801    -0.22500
C1471       C  0.20079413  0.06545502  0.37557260     0.20600
C1472       C  0.17974529  0.09555486  0.37458042     0.25600
C1473       C  0.20945818  0.14683977  0.37468746    -0.22400
C1474       C  0.26042075  0.16745990  0.37309104     0.20500
F1475       F  0.29022932  0.21675718  0.37384694    -0.12400
F1476       F  0.33126433  0.15951891  0.37437576    -0.14700
F1477       F  0.13023899  0.07476810  0.37565274    -0.14700
F1478       F  0.17089867  0.01625752  0.37732574    -0.12400
C1479       C  0.18849873  0.31403879  0.40698518     0.25700
C1480       C  0.17439626  0.28376531  0.38841853    -0.22500
C1481       C  0.14331886  0.28766918  0.37296456     0.20600
C1482       C  0.12258904  0.31737510  0.37724960     0.25600
C1483       C  0.13216789  0.34268737  0.39714303    -0.22400
C1484       C  0.16687859  0.34254852  0.41150067     0.20500
F1485       F  0.17668180  0.36675811  0.43078046    -0.12400
F1486       F  0.21883935  0.31136662  0.42208792    -0.14700
F1487       F  0.08858731  0.31660546  0.36326362    -0.14700
F1488       F  0.12797923  0.25808317  0.35521457    -0.12400
C1489       C  0.43995243  0.57953408  0.26905589     0.25700
C1490       C  0.48909764  0.59180681  0.27159666    -0.22500
C1491       C  0.50012305  0.55613562  0.27907822     0.20600
C1492       C  0.46256703  0.50721781  0.28138269     0.25600
C1493       C  0.41370129  0.49398405  0.27643819    -0.22400
C1494       C  0.40250224  0.53120056  0.27185353     0.20500
F1495       F  0.35571338  0.51950215  0.26703616    -0.12400
F1496       F  0.42856366  0.61353451  0.26178320    -0.14700
F1497       F  0.47476393  0.47208136  0.28530861    -0.14700
F1498       F  0.54751610  0.56764478  0.28180125    -0.12400
C1499       C  0.55053997  0.46316255  0.21824911     0.25700
C1500       C  0.56264356  0.51165067  0.21368403    -0.22500
C1501       C  0.52687401  0.52094775  0.20471701     0.20600
C1502       C  0.47797901  0.48298437  0.20320414     0.25600
C1503       C  0.46479862  0.43568090  0.21077772    -0.22400
C1504       C  0.50207053  0.42533726  0.21654863     0.20500
F1505       F  0.49052131  0.37972205  0.22341201    -0.12400
F1506       F  0.58484269  0.45325789  0.22653765    -0.14700
F1507       F  0.44284683  0.49404973  0.19743471    -0.14700
F1508       F  0.53807421  0.56753574  0.19992320    -0.12400
C1509       C  0.14200286  0.35304240  0.24191089     0.25700
C1510       C  0.18724249  0.37235383  0.25280484    -0.22500
C1511       C  0.19824172  0.40748109  0.26929828     0.20600
C1512       C  0.16716482  0.42671466  0.27317727     0.25600
C1513       C  0.12476893  0.41153696  0.26046567    -0.22400
C1514       C  0.11119452  0.37271062  0.24562011     0.20500
F1515       F  0.07026738  0.35710270  0.23317808    -0.12400
F1516       F  0.12988926  0.31874901  0.22612082    -0.14700
F1517       F  0.18161901  0.46420406  0.28751894    -0.14700
F1518       F  0.24068579  0.42533916  0.28082217    -0.12400
C1519       C  0.28185026  0.29805538  0.32996479     0.25700
C1520       C  0.25630784  0.27157319  0.31129410    -0.22500
C1521       C  0.21049262  0.22891178  0.31387446     0.20600
C1522       C  0.19081288  0.21284187  0.33463444     0.25600
C1523       C  0.21580485  0.23958671  0.35322498    -0.22400
C1524       C  0.26128800  0.28257480  0.35077542     0.20500
F1525       F  0.28644351  0.30840074  0.36860028    -0.12400
F1526       F  0.32616511  0.33929989  0.32801735    -0.14700
F1527       F  0.14703925  0.17102632  0.33668962    -0.14700
F1528       F  0.18530538  0.20195523  0.29626545    -0.12400
C1529       C  0.23577087  0.84626187  0.04295090     0.25700
C1530       C  0.22324188  0.88332023  0.04254907    -0.22500
C1531       C  0.17390517  0.87057271  0.03959145     0.20600
C1532       C  0.13711130  0.82126894  0.04011123     0.25600
C1533       C  0.14953663  0.78459427  0.04334158    -0.22400
C1534       C  0.19905034  0.79706641  0.04328321     0.20500
F1535       F  0.21169087  0.76198281  0.04638900    -0.12400
F1536       F  0.28320188  0.85785267  0.04574565    -0.14700
F1537       F  0.08938663  0.80979142  0.04039318    -0.14700
F1538       F  0.16085365  0.90577422  0.03962648    -0.12400
C1539       C  0.10731324  0.85889915  0.11208883     0.25700
C1540       C  0.07429113  0.87532914  0.10691880    -0.22500
C1541       C  0.09104958  0.92584593  0.10649472     0.20600
C1542       C  0.14108101  0.95940347  0.10829167     0.25600
C1543       C  0.17493000  0.94280543  0.11045372    -0.22400
C1544       C  0.15750331  0.89260774  0.11403462     0.20500
F1545       F  0.18947716  0.87554197  0.11580566    -0.12400
F1546       F  0.09216548  0.81027616  0.11214729    -0.14700
F1547       F  0.15703314  0.00769489  0.10490403    -0.14700
F1548       F  0.05961639  0.94247064  0.10171940    -0.12400
C1549       C  0.52457464  0.99747762  0.07449609     0.25700
C1550       C  0.51039521  0.95795349  0.06005531    -0.22500
C1551       C  0.46672069  0.94081001  0.04809012     0.20600
C1552       C  0.43572302  0.95993248  0.05194284     0.25600
C1553       C  0.44795347  0.99655413  0.06777505    -0.22400
C1554       C  0.49362282  0.01673675  0.07830755     0.20500
F1555       F  0.50605073  0.05150153  0.09390372    -0.12400
F1556       F  0.56615031  0.01401166  0.08656282    -0.14700
F1557       F  0.39227058  0.94054928  0.04111779    -0.14700
F1558       F  0.45098947  0.90152342  0.03470222    -0.12400
C1559       C  0.34532710  0.05282255  0.99124689     0.25700
C1560       C  0.37506467  0.08731262  0.00703812    -0.22500
C1561       C  0.41793805  0.12964447  0.00038410     0.20600
C1562       C  0.42909839  0.13891504  0.97818159     0.25600
C1563       C  0.39894820  0.10485067  0.96239422    -0.22400
C1564       C  0.35758473  0.06126372  0.96912415     0.20500
F1565       F  0.32767460  0.02818022  0.95409917    -0.12400
F1566       F  0.30441115  0.01094592  0.99726616    -0.14700
F1567       F  0.46877299  0.18160974  0.97199470    -0.14700
F1568       F  0.44770447  0.16309557  0.01531676    -0.12400
C1569       C  0.59018009  0.12219697  0.20821956     0.25700
C1570       C  0.57604111  0.07222832  0.20801476    -0.22500
C1571       C  0.52603036  0.03728112  0.20570945     0.20600
C1572       C  0.49051798  0.05183311  0.20660627     0.25600
C1573       C  0.50469804  0.10128655  0.20974210    -0.22400
C1574       C  0.55468807  0.13666065  0.20907515     0.20500
F1575       F  0.56915731  0.18476418  0.21196756    -0.12400
F1576       F  0.63821192  0.15656411  0.21037761    -0.14700
F1577       F  0.44238999  0.01720021  0.20741726    -0.14700
F1578       F  0.51124312  0.98870190  0.20603017    -0.12400
C1579       C  0.37557628  0.06636704  0.18373658     0.25700
C1580       C  0.41949649  0.10929046  0.18870959    -0.22500
C1581       C  0.44995470  0.13800605  0.17165067     0.20600
C1582       C  0.43621487  0.12435384  0.14987521     0.25600
C1583       C  0.39254146  0.08081801  0.14488520    -0.22400
C1584       C  0.36246789  0.05189876  0.16204438     0.20500
F1585       F  0.32007089  0.00981259  0.15778151    -0.12400
F1586       F  0.34639507  0.03746834  0.20002700    -0.14700
F1587       F  0.46647931  0.15259144  0.13369845    -0.14700
F1588       F  0.49314335  0.17899601  0.17615573    -0.12400
C1589       C  0.39771510  0.19627200  0.21440600     0.25700
C1590       C  0.38033141  0.15183014  0.22570037    -0.22500
C1591       C  0.34023693  0.13679583  0.23992314     0.20600
C1592       C  0.32058765  0.16751870  0.24407477     0.25600
C1593       C  0.34136349  0.21407682  0.23433408    -0.22400
C1594       C  0.37852378  0.22709460  0.21871397     0.20500
F1595       F  0.39840803  0.27124894  0.20851964    -0.12400
F1596       F  0.43720473  0.21273066  0.20115195    -0.14700
F1597       F  0.28457822  0.15373910  0.25912007    -0.14700
F1598       F  0.32276826  0.09405862  0.25113479    -0.12400
C1599       C  0.06949280  0.26288416  0.10575223     0.25700
C1600       C  0.07787684  0.31099149  0.10750754    -0.22500
C1601       C  0.12592843  0.34945815  0.11126959     0.20600
C1602       C  0.16546805  0.34066384  0.11045030     0.25600
C1603       C  0.15727005  0.29343903  0.10605978    -0.22400
C1604       C  0.10898454  0.25415237  0.10508446     0.20500
F1605       F  0.10032094  0.20817445  0.10081445    -0.12400
F1606       F  0.02344916  0.22515600  0.10217123    -0.14700
F1607       F  0.21193958  0.37893547  0.11157920    -0.14700
F1608       F  0.13521082  0.39642358  0.11252831    -0.12400
C1609       C  0.26344064  0.15277644  0.09786681     0.25700
C1610       C  0.30466749  0.16458203  0.08483056    -0.22500
C1611       C  0.33341372  0.21315578  0.07748623     0.20600
C1612       C  0.31813428  0.24760315  0.08118884     0.25600
C1613       C  0.27443867  0.23423171  0.09257001    -0.22400
C1614       C  0.24836396  0.18705791  0.10156737     0.20500
F1615       F  0.20529546  0.17222397  0.11199041    -0.12400
F1616       F  0.23608687  0.10702813  0.10625005    -0.14700
F1617       F  0.34438842  0.29322479  0.07253629    -0.14700
F1618       F  0.37416178  0.22638746  0.06540484    -0.12400
C1619       C  0.27956912  0.31674971  0.13631413     0.25700
C1620       C  0.23526018  0.27655879  0.12935994    -0.22500
C1621       C  0.20081711  0.24632043  0.14495461     0.20600
C1622       C  0.21073908  0.25625422  0.16725915     0.25600
C1623       C  0.25444902  0.29758895  0.17413545    -0.22400
C1624       C  0.28890051  0.32750256  0.15847919     0.20500
F1625       F  0.33174644  0.36714567  0.16468364    -0.12400
F1626       F  0.31284238  0.34687604  0.12145612    -0.14700
F1627       F  0.17683323  0.22687819  0.18208107    -0.14700
F1628       F  0.15741635  0.20778765  0.13855686    -0.12400
C1629       C  0.05396382  0.86215522  0.60353773     0.25700
C1630       C  0.06820412  0.82657001  0.60591645    -0.22500
C1631       C  0.11759326  0.84144578  0.61039812     0.20600
C1632       C  0.15307403  0.89120108  0.60960047     0.25600
C1633       C  0.13922402  0.92618322  0.60454988    -0.22400
C1634       C  0.08933429  0.91175456  0.60286429     0.20500
F1635       F  0.07540447  0.94525542  0.59801097    -0.12400
F1636       F  0.00649679  0.84850673  0.59914534    -0.14700
F1637       F  0.20122446  0.90446142  0.61077908    -0.14700
F1638       F  0.13240854  0.80768227  0.61211797    -0.12400
C1639       C  0.18925803  0.85853831  0.53808547     0.25700
C1640       C  0.22441072  0.84507572  0.54346669    -0.22500
C1641       C  0.21069531  0.79530398  0.54426788     0.20600
C1642       C  0.16148480  0.75938367  0.54214376     0.25600
C1643       C  0.12533102  0.77286485  0.53953430    -0.22400
C1644       C  0.13980873  0.82248141  0.53598056     0.20500
F1645       F  0.10555031  0.83656805  0.53391456    -0.12400
F1646       F  0.20186906  0.90657033  0.53757433    -0.14700
F1647       F  0.14837302  0.71176887  0.54568011    -0.14700
F1648       F  0.24418558  0.78167821  0.54965086    -0.12400
C1649       C  0.85847123  0.73598410  0.59886835     0.25700
C1650       C  0.84616793  0.70015248  0.58258889    -0.22500
C1651       C  0.79966478  0.67954576  0.57277286     0.20600
C1652       C  0.76867705  0.69872152  0.57726153     0.25600
C1653       C  0.78345938  0.73833173  0.59183063    -0.22400
C1654       C  0.82734278  0.75470489  0.60352595     0.20500
F1655       F  0.84307721  0.79294852  0.61753003    -0.12400
F1656       F  0.90227968  0.75514921  0.60937204    -0.14700
F1657       F  0.72614244  0.68167687  0.56587290    -0.14700
F1658       F  0.78624436  0.64436244  0.55730397    -0.12400
C1659       C  0.88417729  0.57214484  0.64739031     0.25700
C1660       C  0.92580224  0.61682223  0.64197994    -0.22500
C1661       C  0.95089570  0.65149083  0.65844447     0.20600
C1662       C  0.93567667  0.64063886  0.68017632     0.25600
C1663       C  0.89577116  0.59474078  0.68570870    -0.22400
C1664       C  0.86966041  0.56096524  0.66911835     0.20500
F1665       F  0.83034407  0.51689623  0.67407865    -0.12400
F1666       F  0.85863305  0.53862736  0.63168263    -0.14700
F1667       F  0.96110227  0.67396536  0.69595423    -0.14700
F1668       F  0.98970691  0.69594585  0.65342662    -0.12400
C1669       C  0.80967738  0.63019039  0.44338451     0.25700
C1670       C  0.78816629  0.57911235  0.44230654    -0.22500
C1671       C  0.73717320  0.54975003  0.44411599     0.20600
C1672       C  0.70750398  0.57120496  0.44408536     0.25600
C1673       C  0.72869031  0.62232119  0.44184894    -0.22400
C1674       C  0.78017843  0.65181418  0.44320028     0.20500
F1675       F  0.80237034  0.70136055  0.44144195    -0.12400
F1676       F  0.85896997  0.65920995  0.44150301    -0.14700
F1677       F  0.65807808  0.54173947  0.44412767    -0.14700
F1678       F  0.71597643  0.50016569  0.44368964    -0.12400
C1679       C  0.84667868  0.55576269  0.48146555     0.25700
C1680       C  0.87659715  0.57826239  0.46331019    -0.22500
C1681       C  0.92282403  0.62001446  0.46635856     0.20600
C1682       C  0.93820238  0.63989773  0.48726498     0.25600
C1683       C  0.90787716  0.61755828  0.50536819    -0.22400
C1684       C  0.86237700  0.57490297  0.50233667     0.20500
F1685       F  0.83255114  0.55251720  0.51958444    -0.12400
F1686       F  0.80206863  0.51518124  0.47887459    -0.14700
F1687       F  0.98292877  0.68032228  0.48990908    -0.14700
F1688       F  0.95211278  0.64242218  0.44899083    -0.12400
C1689       C  0.95299888  0.55351528  0.41061106     0.25700
C1690       C  0.91869574  0.53697789  0.42765802    -0.22500
C1691       C  0.91678311  0.50152252  0.44224173     0.20600
C1692       C  0.94523909  0.47935619  0.43841896     0.25600
C1693       C  0.97556554  0.49242702  0.41998706    -0.22400
C1694       C  0.98092140  0.53102540  0.40667883     0.20500
F1695       F  0.01020972  0.54415825  0.38886590    -0.12400
F1696       F  0.95578016  0.58811971  0.39645946    -0.14700
F1697       F  0.93918098  0.44152385  0.45129403    -0.14700
F1698       F  0.88311755  0.48401175  0.45846459    -0.12400
C1699       C  0.16972378  0.40114993  0.53579724     0.25700
C1700       C  0.18152776  0.44729303  0.54415627    -0.22500
C1701       C  0.23073324  0.48156079  0.54855153     0.20600
C1702       C  0.26640760  0.46757901  0.54788444     0.25600
C1703       C  0.25354668  0.41925546  0.54245894    -0.22400
C1704       C  0.20586101  0.38732903  0.53472448     0.20500
F1705       F  0.19244366  0.34039556  0.52947376    -0.12400
F1706       F  0.12238433  0.36743257  0.53141848    -0.14700
F1707       F  0.31191142  0.49907731  0.55561908    -0.14700
F1708       F  0.24309138  0.52672584  0.55624035    -0.12400
C1709       C  0.06816216  0.53570394  0.54559542     0.25700
C1710       C  0.05135749  0.49153330  0.55702805    -0.22500
C1711       C  0.00999153  0.47515322  0.57054339     0.20600
C1712       C  0.98876274  0.50465739  0.57418622     0.25600
C1713       C  0.00923436  0.55140411  0.56464672    -0.22400
C1714       C  0.04739137  0.56538546  0.54940150     0.20500
F1715       F  0.06656233  0.60931950  0.53906069    -0.12400
F1716       F  0.10824220  0.55287557  0.53263746    -0.14700
F1717       F  0.95128754  0.48942954  0.58854785    -0.14700
F1718       F  0.99264595  0.43221287  0.58157361    -0.12400
C1719       C  0.04646440  0.41407453  0.51601953     0.25700
C1720       C  0.09432583  0.45054221  0.52124121    -0.22500
C1721       C  0.12877167  0.47215846  0.50441419     0.20600
C1722       C  0.11599860  0.45618712  0.48280904     0.25600
C1723       C  0.06834948  0.41818368  0.47763133    -0.22400
C1724       C  0.03347560  0.39820411  0.49453249     0.20500
F1725       F  0.98662137  0.36271186  0.49043113    -0.12400
F1726       F  0.01275943  0.39190396  0.53199362    -0.14700
F1727       F  0.15067250  0.47720728  0.46712206    -0.14700
F1728       F  0.17492491  0.50855280  0.50895316    -0.12400
loop_ 
_geom_bond_atom_site_label_1 
_geom_bond_atom_site_label_2 
_geom_bond_distance 
_geom_bond_site_symmetry_2 
_ccdc_geom_bond_type 
N1            C5   1.358       .  A
N1            C2   1.363       .  A
N1         C1720   1.442       .  S
C2            C3   1.383       .  A
C2         C1710   1.484       .  S
C3            C4   1.370       .  A
C3            H6   1.082       .  S
C4            C5   1.381       .  A
C4            H7   1.083       .  S
C5         C1700   1.479       .  S
N8           C12   1.354       .  A
N8            C9   1.356       .  A
N8         C1680   1.439       .  S
C9           C10   1.384       .  A
C9         C1690   1.474       .  S
C10          C11   1.370       .  A
C10          H13   1.082       .  S
C11          C12   1.380       .  A
C11          H14   1.082       .  S
C12        C1670   1.470       .  S
O15         Cr33   1.963       .  S
O15          C23   1.256       .  A
O16         Cr33   2.032       .  S
O16          C17   1.270       .  A
C17        C1713   1.488   1_655  S
C17          O18   1.256   1_655  A
O18         Cr34   1.964       .  S
O19         Cr34   1.986       .  S
O19          C20   1.263       .  A
C20        C1643   1.470       .  S
C20          O21   1.263       .  A
O21         Cr35   1.990   1_455  S
O22         Cr35   2.017       .  S
O22          C23   1.268       .  A
C23        C1683   1.474       .  S
O24         Cr33   2.028       .  S
O24          C32   1.269       .  A
O25         Cr33   1.966       .  S
O25          C26   1.255       .  A
C26        C1660   1.473       .  S
C26          O27   1.266       .  A
O27         Cr34   2.010   1_655  S
O28         Cr34   1.981       .  S
O28          C29   1.261       .  A
C29        C1630   1.467       .  S
C29          O30   1.264       .  A
O30         Cr35   1.992   1_455  S
O31         Cr35   1.969       .  S
O31          C32   1.257       .  A
C32        C1650   1.486       .  S
Cr33         O36   1.785       .  S
Cr34         O36   1.774   1_455  S
Cr35         O36   1.775       .  S
N37          C41   1.360       .  A
N37          C38   1.353       .  A
N37        C1620   1.438       .  S
C38          C39   1.379       .  A
C38        C1603   1.475       .  S
C39          C40   1.374       .  A
C39          H42   1.081       .  S
C40          C41   1.384       .  A
C40          H43   1.082       .  S
C41        C1613   1.483       .  S
N44          C48   1.362       .  A
N44          C45   1.355       .  A
N44        C1580   1.440       .  S
C45          C46   1.380       .  A
C45        C1573   1.476       .  S
C46          C47   1.372       .  A
C46          H49   1.082       .  S
C47          C48   1.384       .  A
C47          H50   1.082       .  S
C48        C1590   1.484       .  S
O51         Cr69   2.024       .  S
O51          C59   1.268       .  A
O52         Cr69   1.979       .  S
O52          C53   1.260       .  A
C53        C1583   1.483       .  S
C53          O54   1.268       .  A
O54         Cr70   2.014   1_545  S
O55         Cr70   1.988       .  S
O55          C56   1.263       .  A
C56        C1543   1.470       .  S
C56          O57   1.263       .  A
O57         Cr71   1.988   1_565  S
O58         Cr71   1.962       .  S
O58          C59   1.257       .  A
C59        C1610   1.487       .  S
O60         Cr69   1.981       .  S
O60          C68   1.258       .  A
O61         Cr69   2.013       .  S
O61          C62   1.266       .  A
C62        C1553   1.475   1_545  S
C62          O63   1.257   1_545  A
O63         Cr70   1.966       .  S
O64         Cr70   1.994       .  S
O64          C65   1.263       .  A
C65        C1530   1.468       .  S
C65          O66   1.260       .  A
O66         Cr71   1.982   1_565  S
O67         Cr71   2.006       .  S
O67          C68   1.265       .  A
C68        C1560   1.479       .  S
Cr69         O72   1.787       .  S
Cr70         O72   1.775   1_565  S
Cr71         O72   1.773       .  S
O73         Cr91   1.968       .  S
O73          C81   1.258       .  A
O74         Cr91   2.028       .  S
O74          C75   1.270       .  A
C75        C1510   1.487       .  S
C75          O76   1.259       .  A
O76         Cr92   1.974       .  S
O77         Cr92   1.976       .  S
O77          C78   1.259       .  A
C78        C1493   1.475       .  S
C78          O79   1.264       .  A
O79         Cr93   1.998       .  S
O80         Cr93   2.018       .  S
O80          C81   1.268       .  A
C81        C1520   1.483       .  S
O82         Cr91   2.023       .  S
O82          C90   1.267       .  A
O83         Cr91   1.979       .  S
O83          C84   1.257       .  A
C84        C1623   1.476       .  S
C84          O85   1.263       .  A
O85         Cr92   2.004       .  S
O86         Cr92   1.993       .  S
O86          C87   1.265       .  A
C87        C1503   1.475       .  S
C87          O88   1.265       .  A
O88         Cr93   1.987       .  S
O89         Cr93   1.969       .  S
O89          C90   1.257       .  A
C90        C1593   1.484       .  S
Cr91         O94   1.790       .  S
Cr92         O94   1.776       .  S
Cr93         O94   1.779       .  S
N95          C99   1.361       .  A
N95          C96   1.360       .  A
N95        C1523   1.441       .  S
C96          C97   1.380       .  A
C96        C1473   1.479       .  S
C97          C98   1.368       .  A
C97         H100   1.082       .  S
C98          C99   1.383       .  A
C98         H101   1.083       .  S
C99        C1480   1.481       .  S
N102        C106   1.358       .  A
N102        C103   1.364       .  A
N102       C1460   1.443       .  S
C103        C104   1.384       .  A
C103       C1513   1.486       .  S
C104        C105   1.370       .  A
C104        H107   1.082       .  S
C105        C106   1.379       .  A
C105        H108   1.082       .  S
C106       C1450   1.477       .  S
O109       Cr127   1.982       .  S
O109        C117   1.259   1_455  A
O110       Cr127   2.022       .  S
O110        C111   1.269       .  A
C111       C1723   1.492       .  S
C111        O112   1.259       .  A
O112       Cr128   1.971       .  S
O113       Cr128   2.000   1_655  S
O113        C114   1.264       .  A
C114       C1443   1.483       .  S
C114        O115   1.262       .  A
O115       Cr129   1.983       .  S
O116       Cr129   2.005       .  S
O116        C117   1.266       .  A
C117       C1693   1.466       .  S
O118       Cr127   2.018       .  S
O118        C126   1.268       .  A
O119       Cr127   1.987       .  S
O119        C120   1.260       .  A
C120       C1483   1.473       .  S
C120        O121   1.266       .  A
O121       Cr128   2.009       .  S
O122       Cr128   1.982   1_655  S
O122        C123   1.264       .  A
C123       C1430   1.485       .  S
C123        O124   1.265       .  A
O124       Cr129   2.001       .  S
O125       Cr129   1.979       .  S
O125        C126   1.260   1_655  A
C126       C1463   1.495       .  S
Cr127       O130   1.770       .  S
Cr128       O130   1.763       .  S
Cr129       O130   1.764   1_655  S
N131        C135   1.360       .  A
N131        C132   1.355       .  A
N131       C1423   1.445       .  S
C132        C133   1.380       .  A
C132       C1410   1.469       .  S
C133        C134   1.367       .  A
C133        H136   1.083       .  S
C134        C135   1.384       .  A
C134        H137   1.083       .  S
C135       C1550   1.475       .  S
N138        C142   1.362       .  A
N138        C139   1.354       .  A
N138       C1563   1.440       .  S
C139        C140   1.379       .  A
C139       C1393   1.474       .  S
C140        C141   1.372       .  A
C140        H143   1.083       .  S
C141        C142   1.386       .  A
C141        H144   1.082       .  S
C142       C1400   1.485       .  S
O145       Cr163   1.984       .  S
O145        C153   1.259       .  A
O146       Cr163   2.023       .  S
O146        C147   1.267       .  A
C147       C1370   1.483       .  S
C147        O148   1.257       .  A
O148       Cr164   1.966   1_565  S
O149       Cr164   1.997       .  S
O149        C150   1.266       .  A
C150       C1350   1.471       .  S
C150        O151   1.262       .  A
O151       Cr165   1.982       .  S
O152       Cr165   2.003       .  S
O152        C153   1.263   1_545  A
C153       C1380   1.480       .  S
O154       Cr163   2.027       .  S
O154        C162   1.270   1_565  A
O155       Cr163   1.982       .  S
O155        C156   1.260       .  A
C156       C1420   1.488       .  S
C156        O157   1.269       .  A
O157       Cr164   2.018   1_565  S
O158       Cr164   1.993       .  S
O158        C159   1.262       .  A
C159       C1360   1.473       .  S
C159        O160   1.261       .  A
O160       Cr165   1.984       .  S
O161       Cr165   1.963       .  S
O161        C162   1.258       .  A
C162       C1403   1.481       .  S
Cr163       O166   1.789   1_565  S
Cr164       O166   1.778       .  S
Cr165       O166   1.776       .  S
N167        C171   1.361       .  A
N167        C168   1.356       .  A
N167       C1663   1.439       .  S
C168        C169   1.379       .  A
C168       C1330   1.478       .  S
C169        C170   1.371       .  A
C169        H172   1.082       .  S
C170        C171   1.385       .  A
C170        H173   1.082       .  S
C171       C1340   1.485       .  S
N174        C178   1.366       .  A
N174        C175   1.359       .  A
N174       C1320   1.445       .  S
C175        C176   1.379       .  A
C175       C1310   1.479       .  S
C176        C177   1.369       .  A
C176        H179   1.082       .  S
C177        C178   1.384       .  A
C177        H180   1.082       .  S
C178       C1653   1.487       .  S
N181        C185   1.360       .  A
N181        C182   1.352       .  A
N181       C1383   1.438       .  S
C182        C183   1.379       .  A
C182       C1290   1.472       .  S
C183        C184   1.372       .  A
C183        H186   1.082       .  S
C184        C185   1.384       .  A
C184        H187   1.082       .  S
C185       C1303   1.480       .  S
N188        C192   1.361       .  A
N188        C189   1.352       .  A
N188       C1283   1.440       .  S
C189        C190   1.379       .  A
C189       C1270   1.472       .  S
C190        C191   1.372       .  A
C190        H193   1.082       .  S
C191        C192   1.385       .  A
C191        H194   1.082       .  S
C192       C1373   1.483       .  S
O195       Cr213   1.983       .  S
O195        C203   1.257       .  A
O196       Cr213   2.020       .  S
O196        C197   1.268       .  A
C197       C1323   1.497       .  S
C197        O198   1.259       .  A
O198       Cr214   1.975       .  S
O199       Cr214   2.000       .  S
O199        C200   1.265       .  A
C200       C1250   1.488       .  S
C200        O201   1.264       .  A
O201       Cr215   1.984       .  S
O202       Cr215   2.011       .  S
O202        C203   1.265       .  A
C203       C1343   1.472       .  S
O204       Cr213   2.023       .  S
O204        C212   1.270       .  A
O205       Cr213   1.980       .  S
O205        C206   1.258       .  A
C206       C1300   1.473       .  S
C206        O207   1.267       .  A
O207       Cr214   2.011       .  S
O208       Cr214   1.989       .  S
O208        C209   1.265       .  A
C209       C1260   1.494       .  S
C209        O210   1.264       .  A
O210       Cr215   2.004       .  S
O211       Cr215   1.971       .  S
O211        C212   1.259       .  A
C212       C1280   1.494       .  S
Cr213       O216   1.779       .  S
Cr214       O216   1.768       .  S
Cr215       O216   1.770       .  S
N217        C221   1.358       .  A
N217        C218   1.360       .  A
N217       C1240   1.441       .  S
C218        C219   1.383       .  A
C218       C1230   1.480       .  S
C219        C220   1.370       .  A
C219        H222   1.082       .  S
C220        C221   1.381       .  A
C220        H223   1.082       .  S
C221       C1263   1.478       .  S
N224        C228   1.352       .  A
N224        C225   1.359   1_655  A
N224       C1210   1.437       .  S
C225        C226   1.384   1_455  A
C225       C1220   1.479       .  S
C226        C227   1.372       .  A
C226        H229   1.082       .  S
C227        C228   1.379       .  A
C227        H230   1.082       .  S
C228       C1353   1.471       .  S
O231       Cr249   2.014       .  S
O231        C239   1.266       .  A
O232       Cr249   1.981       .  S
O232        C233   1.260       .  A
C233       C1200   1.477       .  S
C233        O234   1.265   1_655  A
O234       Cr250   2.003       .  S
O235       Cr250   1.991   1_655  S
O235        C236   1.263       .  A
C236       C1333   1.474       .  S
C236        O237   1.264       .  A
O237       Cr251   1.994       .  S
O238       Cr251   1.968       .  S
O238        C239   1.258       .  A
C239       C1193   1.479       .  S
O240       Cr249   1.977       .  S
O240        C248   1.259       .  A
O241       Cr249   2.016   1_455  S
O241        C242   1.266       .  A
C242       C1233   1.482       .  S
C242        O243   1.257       .  A
O243       Cr250   1.967       .  S
O244       Cr250   1.978       .  S
O244        C245   1.262       .  A
C245       C1180   1.469       .  S
C245        O246   1.262   1_455  A
O246       Cr251   1.989       .  S
O247       Cr251   2.008       .  S
O247        C248   1.266       .  A
C248       C1213   1.479       .  S
Cr249       O252   1.786       .  S
Cr250       O252   1.772   1_455  S
Cr251       O252   1.773       .  S
O253       Cr271   1.980       .  S
O253        C261   1.259       .  A
O254       Cr271   2.017       .  S
O254        C255   1.267       .  A
C255       C1223   1.482       .  S
C255        O256   1.257       .  A
O256       Cr272   1.965       .  S
O257       Cr272   1.981       .  S
O257        C258   1.262       .  A
C258       C1150   1.472       .  S
C258        O259   1.263       .  A
O259       Cr273   1.992       .  S
O260       Cr273   2.010       .  S
O260        C261   1.266       .  A
C261       C1243   1.480       .  S
O262       Cr271   2.016       .  S
O262        C270   1.267       .  A
O263       Cr271   1.980       .  S
O263        C264   1.259       .  A
C264       C1170   1.477       .  S
C264        O265   1.264       .  A
O265       Cr272   2.005       .  S
O266       Cr272   1.987       .  S
O266        C267   1.262       .  A
C267       C1390   1.472       .  S
C267        O268   1.264       .  A
O268       Cr273   1.992       .  S
O269       Cr273   1.970       .  S
O269        C270   1.258       .  A
C270       C1163   1.480       .  S
Cr271       O274   1.787       .  S
Cr272       O274   1.775       .  S
Cr273       O274   1.775       .  S
N275        C279   1.362       .  A
N275        C276   1.355       .  A
N275       C1173   1.441       .  S
C276        C277   1.379       .  A
C276       C1133   1.475       .  S
C277        C278   1.370       .  A
C277        H280   1.082       .  S
C278        C279   1.384       .  A
C278        H281   1.082       .  S
C279       C1143   1.484       .  S
N282        C286   1.364       .  A
N282        C283   1.357       .  A
N282       C1120   1.444       .  S
C283        C284   1.378       .  A
C283       C1113   1.473       .  S
C284        C285   1.368       .  A
C284        H287   1.081       .  S
C285        C286   1.385       .  A
C285        H288   1.082       .  S
C286       C1160   1.486       .  S
O289       Cr307   1.986       .  S
O289        C297   1.258       .  A
O290       Cr307   2.034       .  S
O290        C291   1.273       .  A
C291       C1123   1.490       .  S
C291        O292   1.257       .  A
O292       Cr308   1.957       .  S
O293       Cr308   1.997       .  S
O293        C294   1.264       .  A
C294       C1413   1.481       .  S
C294        O295   1.260       .  A
O295       Cr309   1.977       .  S
O296       Cr309   2.009       .  S
O296        C297   1.265       .  A
C297       C1140   1.475       .  S
O298       Cr307   2.030       .  S
O298        C306   1.272       .  A
O299       Cr307   1.988       .  S
O299        C300   1.258       .  A
C300       C1090   1.472       .  S
C300        O301   1.263       .  A
O301       Cr308   2.004       .  S
O302       Cr308   1.981       .  S
O302        C303   1.263       .  A
C303       C1080   1.490       .  S
C303        O304   1.267       .  A
O304       Cr309   2.010       .  S
O305       Cr309   1.961       .  S
O305        C306   1.258       .  A
C306       C1100   1.494       .  S
Cr307       O310   1.773       .  S
Cr308       O310   1.766       .  S
Cr309       O310   1.764       .  S
N311        C315   1.358       .  A
N311        C312   1.351       .  A
N311       C1070   1.437       .  S
C312        C313   1.379       .  A
C312       C1060   1.469       .  S
C313        C314   1.372       .  A
C313        H316   1.082       .  S
C314        C315   1.384       .  A
C314        H317   1.082       .  S
C315       C1190   1.479       .  S
N318        C322   1.360   1_455  A
N318        C319   1.356       .  A
N318       C1203   1.438   1_455  S
C319        C320   1.381       .  A
C319       C1040   1.480       .  S
C320        C321   1.372   1_455  A
C320        H323   1.082       .  S
C321        C322   1.383       .  A
C321        H324   1.082       .  S
C322       C1050   1.482       .  S
N325        C329   1.355       .  A
N325        C326   1.363       .  A
N325       C1030   1.441       .  S
C326        C327   1.386       .  A
C326       C1020   1.488       .  S
C327        C328   1.372       .  A
C327        H330   1.082       .  S
C328        C329   1.378       .  A
C328        H331   1.082       .  S
C329       C1640   1.474       .  S
N332        C336   1.356       .  A
N332        C333   1.358       .  A
N332       C1000   1.439       .  S
C333        C334   1.383       .  A
C333       C1010   1.477       .  S
C334        C335   1.370       .  A
C334        H337   1.082       .  S
C335        C336   1.380       .  A
C335        H338   1.082       .  S
C336       C1440   1.473       .  S
O339       Cr357   1.977       .  S
O339        C347   1.259       .  A
O340       Cr357   2.024       .  S
O340        C341   1.269       .  A
C341       C1023   1.483       .  S
C341        O342   1.258   1_545  A
O342       Cr358   1.969       .  S
O343       Cr358   1.976       .  S
O343        C344   1.260       .  A
C344        C990   1.470       .  S
C344        O345   1.263       .  A
O345       Cr359   1.994   1_565  S
O346       Cr359   2.011       .  S
O346        C347   1.266       .  A
C347       C1003   1.485       .  S
O348       Cr357   2.021       .  S
O348        C356   1.267       .  A
O349       Cr357   1.984       .  S
O349        C350   1.259       .  A
C350       C1073   1.476       .  S
C350        O351   1.262       .  A
O351       Cr358   1.998   1_545  S
O352       Cr358   1.993       .  S
O352        C353   1.265       .  A
C353       C1313   1.475       .  S
C353        O354   1.264       .  A
O354       Cr359   1.989   1_565  S
O355       Cr359   1.966       .  S
O355        C356   1.257       .  A
C356       C1053   1.482       .  S
Cr357       O360   1.788       .  S
Cr358       O360   1.774   1_565  S
Cr359       O360   1.777       .  S
O361       Cr379   1.983       .  S
O361        C369   1.258       .  A
O362       Cr379   2.030       .  S
O362        C363   1.272       .  A
C363        C983   1.493       .  S
C363        O364   1.259   1_565  A
O364       Cr380   1.966       .  S
O365       Cr380   2.006       .  S
O365        C366   1.266       .  A
C366       C1470   1.487       .  S
C366        O367   1.262       .  A
O367       Cr381   1.982       .  S
O368       Cr381   2.004   1_565  S
O368        C369   1.264       .  A
C369        C970   1.467       .  S
O370       Cr379   2.031       .  S
O370        C378   1.271       .  A
O371       Cr379   1.982       .  S
O371        C372   1.257   1_565  A
C372       C1013   1.469       .  S
C372        O373   1.265       .  A
O373       Cr380   2.007       .  S
O374       Cr380   1.984       .  S
O374        C375   1.263       .  A
C375        C960   1.487       .  S
C375        O376   1.265       .  A
O376       Cr381   2.004       .  S
O377       Cr381   1.960   1_565  S
O377        C378   1.257       .  A
C378       C1033   1.493       .  S
Cr379       O382   1.775       .  S
Cr380       O382   1.763   1_545  S
Cr381       O382   1.764   1_545  S
N383        C387   1.359   1_655  A
N383        C384   1.360       .  A
N383        C950   1.442       .  S
C384        C385   1.382       .  A
C384        C943   1.479       .  S
C385        C386   1.368   1_655  A
C385        H388   1.083       .  S
C386        C387   1.381       .  A
C386        H389   1.083       .  S
C387        C973   1.476       .  S
N390        C394   1.363       .  A
N390        C391   1.356       .  A
N390        C980   1.443       .  S
C391        C392   1.380       .  A
C391        C920   1.476       .  S
C392        C393   1.372       .  A
C392        H395   1.082       .  S
C393        C394   1.384       .  A
C393        H396   1.082       .  S
C394        C933   1.485       .  S
N397        C401   1.355   1_655  A
N397        C398   1.360       .  A
N397        C910   1.437       .  S
C398        C399   1.385       .  A
C398       C1093   1.483       .  S
C399        C400   1.372   1_655  A
C399        H402   1.082       .  S
C400        C401   1.380       .  A
C400        H403   1.082       .  S
C401       C1540   1.477       .  S
N404        C408   1.356       .  A
N404        C405   1.363       .  A
N404       C1103   1.442       .  S
C405        C406   1.384       .  A
C405        C900   1.484       .  S
C406        C407   1.372       .  A
C406        H409   1.082       .  S
C407        C408   1.379       .  A
C407        H410   1.082       .  S
C408       C1500   1.478       .  S
O411       Cr429   1.969       .  S
O411        C419   1.256   1_655  A
O412       Cr429   2.028       .  S
O412        C413   1.269       .  A
C413        C903   1.490       .  S
C413        O414   1.259       .  A
O414       Cr430   1.969       .  S
O415       Cr430   1.993       .  S
O415        C416   1.263       .  A
C416        C890   1.469       .  S
C416        O417   1.261       .  A
O417       Cr431   1.984   1_655  S
O418       Cr431   2.016       .  S
O418        C419   1.267       .  A
C419        C913   1.482   1_455  S
O420       Cr429   2.031   1_455  S
O420        C428   1.269       .  A
O421       Cr429   1.973   1_455  S
O421        C422   1.257   1_455  A
C422        C953   1.479       .  S
C422        O423   1.267       .  A
O423       Cr430   2.014       .  S
O424       Cr430   1.989   1_455  S
O424        C425   1.263       .  A
C425       C1453   1.472       .  S
C425        O426   1.264       .  A
O426       Cr431   1.992       .  S
O427       Cr431   1.960       .  S
O427        C428   1.255       .  A
C428        C930   1.484       .  S
Cr429       O432   1.788       .  S
Cr430       O432   1.775       .  S
Cr431       O432   1.777   1_455  S
N433        C437   1.353       .  A
N433        C434   1.360       .  A
N433        C880   1.440       .  S
C434        C435   1.385       .  A
C434        C870   1.481       .  S
C435        C436   1.371       .  A
C435        H438   1.082       .  S
C436        C437   1.379       .  A
C436        H439   1.082       .  S
C437       C1183   1.472       .  S
N440        C444   1.359   1_545  A
N440        C441   1.352       .  A
N440        C853   1.438       .  S
C441        C442   1.380       .  A
C441       C1153   1.473       .  S
C442        C443   1.371       .  A
C442        H445   1.082       .  S
C443        C444   1.385   1_545  A
C443        H446   1.082   1_545  S
C444        C860   1.480       .  S
O447       Cr465   2.021   1_565  S
O447        C455   1.267       .  A
O448       Cr465   1.980       .  S
O448        C449   1.259       .  A
C449        C850   1.476       .  S
C449        O450   1.264       .  A
O450       Cr466   2.002       .  S
O451       Cr466   1.980   1_565  S
O451        C452   1.261       .  A
C452       C1293   1.470       .  S
C452        O453   1.266       .  A
O453       Cr467   1.998       .  S
O454       Cr467   1.961       .  S
O454        C455   1.256       .  A
C455        C873   1.478       .  S
O456       Cr465   1.974       .  S
O456        C464   1.259   1_545  A
O457       Cr465   2.026       .  S
O457        C458   1.269       .  A
C458        C830   1.478       .  S
C458        O459   1.256       .  A
O459       Cr466   1.959       .  S
O460       Cr466   1.985       .  S
O460        C461   1.261       .  A
C461       C1063   1.466       .  S
C461        O462   1.260       .  A
O462       Cr467   1.986   1_545  S
O463       Cr467   2.013       .  S
O463        C464   1.268       .  A
C464        C843   1.480   1_565  S
Cr465       O468   1.785       .  S
Cr466       O468   1.771       .  S
Cr467       O468   1.772   1_565  S
N469        C473   1.360       .  A
N469        C470   1.360   1_545  A
N469        C820   1.446       .  S
C470        C471   1.383       .  A
C470        C813   1.477       .  S
C471        C472   1.367   1_565  A
C471        H474   1.083       .  S
C472        C473   1.380       .  A
C472        H475   1.082       .  S
C473       C1433   1.474       .  S
N476        C480   1.357       .  A
N476        C477   1.361       .  A
N476        C793   1.442       .  S
C477        C478   1.384       .  A
C477        C800   1.483       .  S
C478        C479   1.373       .  A
C478        H481   1.082       .  S
C479        C480   1.380       .  A
C479        H482   1.082       .  S
C480       C1490   1.477       .  S
N483        C487   1.353       .  A
N483        C484   1.358       .  A
N483        C780   1.439       .  S
C484        C485   1.384       .  A
C484        C773   1.478       .  S
C485        C486   1.372       .  A
C485        H488   1.082       .  S
C486        C487   1.379       .  A
C486        H489   1.082       .  S
C487       C1533   1.471       .  S
N490        C494   1.352       .  A
N490        C491   1.358       .  A
N490        C750   1.437       .  S
C491        C492   1.384       .  A
C491        C760   1.477       .  S
C492        C493   1.373       .  A
C492        H495   1.082       .  S
C493        C494   1.380       .  A
C493        H496   1.082       .  S
C494       C1363   1.474       .  S
N497        C501   1.359       .  A
N497        C498   1.358   1_545  A
N497        C743   1.441       .  S
C498        C499   1.381       .  A
C498       C1083   1.475       .  S
C499        C500   1.369   1_565  A
C499        H502   1.082       .  S
C500        C501   1.382       .  A
C500        H503   1.082       .  S
C501        C733   1.475       .  S
N504        C508   1.361       .  A
N504        C505   1.355       .  A
N504        C713   1.438       .  S
C505        C506   1.378       .  A
C505        C893   1.473       .  S
C506        C507   1.371       .  A
C506        H509   1.082       .  S
C507        C508   1.385       .  A
C507        H510   1.082       .  S
C508        C720   1.485       .  S
O511       Cr529   2.022       .  S
O511        C519   1.269       .  A
O512       Cr529   1.973       .  S
O512        C513   1.257       .  A
C513        C710   1.477       .  S
C513        O514   1.266       .  A
O514       Cr530   2.009   1_655  S
O515       Cr530   1.986       .  S
O515        C516   1.261       .  A
C516       C1600   1.473       .  S
C516        O517   1.263       .  A
O517       Cr531   1.995   1_455  S
O518       Cr531   1.961       .  S
O518        C519   1.258       .  A
C519        C730   1.482       .  S
O520       Cr529   1.976       .  S
O520        C528   1.257       .  A
O521       Cr529   2.021       .  S
O521        C522   1.267       .  A
C522        C770   1.480       .  S
C522        O523   1.256   1_655  A
O523       Cr530   1.959       .  S
O524       Cr530   1.990       .  S
O524        C525   1.264       .  A
C525       C1130   1.470       .  S
C525        O526   1.262       .  A
O526       Cr531   1.986   1_455  S
O527       Cr531   2.010       .  S
O527        C528   1.265       .  A
C528        C753   1.479       .  S
Cr529       O532   1.789       .  S
Cr530       O532   1.773   1_455  S
Cr531       O532   1.775       .  S
O533       Cr551   1.972       .  S
O533        C541   1.257       .  A
O534       Cr551   2.022   1_565  S
O534        C535   1.269       .  A
C535        C803   1.482       .  S
C535        O536   1.257       .  A
O536       Cr552   1.963       .  S
O537       Cr552   1.977       .  S
O537        C538   1.260       .  A
C538        C923   1.472       .  S
C538        O539   1.262   1_565  A
O539       Cr553   1.995       .  S
O540       Cr553   2.020       .  S
O540        C541   1.268       .  A
C541        C823   1.483       .  S
O542       Cr551   2.019       .  S
O542        C550   1.267       .  A
O543       Cr551   1.982       .  S
O543        C544   1.258       .  A
C544        C740   1.481       .  S
C544        O545   1.264   1_545  A
O545       Cr552   2.007       .  S
O546       Cr552   1.989   1_545  S
O546        C547   1.264       .  A
C547       C1570   1.473       .  S
C547        O548   1.266       .  A
O548       Cr553   1.997       .  S
O549       Cr553   1.971       .  S
O549        C550   1.258       .  A
C550        C723   1.481       .  S
Cr551       O554   1.789       .  S
Cr552       O554   1.776   1_565  S
Cr553       O554   1.779       .  S
O555       Cr573   1.982       .  S
O555        C563   1.259       .  A
O556       Cr573   2.012       .  S
O556        C557   1.264       .  A
C557        C863   1.475       .  S
C557        O558   1.256       .  A
O558       Cr574   1.963   1_455  S
O559       Cr574   1.983       .  S
O559        C560   1.263       .  A
C560       C1273   1.466       .  S
C560        O561   1.261       .  A
O561       Cr575   1.985       .  S
O562       Cr575   2.000       .  S
O562        C563   1.263   1_655  A
C563        C883   1.473       .  S
O564       Cr573   2.016       .  S
O564        C572   1.267   1_455  A
O565       Cr573   1.977       .  S
O565        C566   1.260       .  A
C566        C783   1.473       .  S
C566        O567   1.266       .  A
O567       Cr574   2.005   1_455  S
O568       Cr574   1.990       .  S
O568        C569   1.262       .  A
C569       C1110   1.473       .  S
C569        O570   1.262       .  A
O570       Cr575   1.985       .  S
O571       Cr575   1.967       .  S
O571        C572   1.258       .  A
C572        C763   1.483       .  S
Cr573       O576   1.786   1_455  S
Cr574       O576   1.772       .  S
Cr575       O576   1.772       .  S
N577        C581   1.362       .  A
N577        C578   1.359       .  A
N577        C700   1.443       .  S
C578        C579   1.380       .  A
C578        C963   1.476       .  S
C579        C580   1.368       .  A
C579        H582   1.082       .  S
C580        C581   1.383       .  A
C580        H583   1.083       .  S
C581        C690   1.481       .  S
N584        C588   1.360       .  A
N584        C585   1.354       .  A
N584        C670   1.441       .  S
C585        C586   1.381       .  A
C585        C993   1.474       .  S
C586        C587   1.374       .  A
C586        H589   1.082       .  S
C587        C588   1.383       .  A
C587        H590   1.082       .  S
C588        C680   1.479       .  S
O591       Cr609   1.987       .  S
O591        C599   1.258       .  A
O592       Cr609   2.028       .  S
O592        C593   1.271       .  A
C593        C673   1.493       .  S
C593        O594   1.259       .  A
O594       Cr610   1.966       .  S
O595       Cr610   2.003       .  S
O595        C596   1.265       .  A
C596       C1673   1.479       .  S
C596        O597   1.261       .  A
O597       Cr611   1.976       .  S
O598       Cr611   2.009       .  S
O598        C599   1.265       .  A
C599        C693   1.473       .  S
O600       Cr609   2.025       .  S
O600        C608   1.271       .  A
O601       Cr609   1.983       .  S
O601        C602   1.257       .  A
C602        C810   1.469       .  S
C602        O603   1.265       .  A
O603       Cr610   2.006       .  S
O604       Cr610   1.987       .  S
O604        C605   1.264       .  A
C605        C940   1.491       .  S
C605        O606   1.266       .  A
O606       Cr611   2.007       .  S
O607       Cr611   1.963       .  S
O607        C608   1.257       .  A
C608        C790   1.490       .  S
Cr609       O612   1.773       .  S
Cr610       O612   1.763       .  S
Cr611       O612   1.762       .  S
N613        C617   1.357       .  A
N613        C614   1.360       .  A
N613        C660   1.442       .  S
C614        C615   1.383       .  A
C614        C833   1.477       .  S
C615        C616   1.371       .  A
C615        H618   1.082       .  S
C616        C617   1.380       .  A
C616        H619   1.082       .  S
C617       C1253   1.474       .  S
N620        C624   1.353   1_545  A
N620        C621   1.359       .  A
N620        C840   1.439       .  S
C621        C622   1.384       .  A
C621        C653   1.477       .  S
C622        C623   1.371   1_545  A
C622        H625   1.082       .  S
C623        C624   1.379       .  A
C623        H626   1.082       .  S
C624       C1633   1.470       .  S
O627       Cr645   1.984       .  S
O627        C635   1.258       .  A
O628       Cr645   2.024       .  S
O628        C629   1.269       .  A
C629        C683   1.484       .  S
C629        O630   1.257       .  A
O630       Cr646   1.958       .  S
O631       Cr646   1.990       .  S
O631        C632   1.265       .  A
C632       C1703   1.473       .  S
C632        O633   1.265       .  A
O633       Cr647   1.991       .  S
O634       Cr647   2.010       .  S
O634        C635   1.262       .  A
C635        C703   1.488       .  S
O636       Cr645   2.023       .  S
O636        C644   1.270       .  A
O637       Cr645   1.980       .  S
O637        C638   1.257       .  A
C638        C663   1.485       .  S
C638        O639   1.263       .  A
O639       Cr646   2.004       .  S
O640       Cr646   1.994       .  S
O640        C641   1.261       .  A
C641       C1043   1.476       .  S
C641        O642   1.261       .  A
O642       Cr647   1.988       .  S
O643       Cr647   1.961       .  S
O643        C644   1.259       .  A
C644        C650   1.479       .  S
Cr645       O648   1.793       .  S
Cr646       O648   1.781       .  S
Cr647       O648   1.781       .  S
C649        C650   1.409       .  A
C649        C654   1.398       .  A
C649        F656   1.359       .  S
C650        C651   1.404       .  A
C651        C652   1.402       .  A
C651        F658   1.357       .  S
C652        C653   1.408       .  A
C652        F657   1.358       .  S
C653        C654   1.403       .  A
C654        F655   1.357       .  S
C659        C660   1.404       .  A
C659        C664   1.403       .  A
C659        F666   1.357       .  S
C660        C661   1.405       .  A
C661        C662   1.403       .  A
C661        F668   1.357       .  S
C662        C663   1.408       .  A
C662        F667   1.358       .  S
C663        C664   1.409       .  A
C664        F665   1.358       .  S
C669        C670   1.406       .  A
C669        C674   1.405       .  A
C669        F676   1.357       .  S
C670        C671   1.400       .  A
C671        C672   1.396       .  A
C671        F678   1.357       .  S
C672        C673   1.414       .  A
C672        F677   1.358       .  S
C673        C674   1.411       .  A
C674        F675   1.357       .  S
C679        C680   1.409       .  A
C679        C684   1.406       .  A
C679        F686   1.358       .  S
C680        C681   1.401       .  A
C681        C682   1.395       .  A
C681        F688   1.358       .  S
C682        C683   1.410       .  A
C682        F687   1.357       .  S
C683        C684   1.406       .  A
C684        F685   1.357       .  S
C689        C690   1.410       .  A
C689        C694   1.399       .  A
C689        F696   1.358       .  S
C690        C691   1.406       .  A
C691        C692   1.404       .  A
C691        F698   1.357       .  S
C692        C693   1.407       .  A
C692        F697   1.358       .  S
C693        C694   1.400       .  A
C694        F695   1.358       .  S
C699        C700   1.404       .  A
C699        C704   1.405       .  A
C699        F706   1.357       .  S
C700        C701   1.404       .  A
C701        C702   1.403       .  A
C701        F708   1.357       .  S
C702        C703   1.408       .  A
C702        F707   1.358       .  S
C703        C704   1.409       .  A
C704        F705   1.358       .  S
C709        C710   1.407       .  A
C709        C714   1.402       .  A
C709        F716   1.358       .  S
C710        C711   1.406       .  A
C711        C712   1.400       .  A
C711        F718   1.358       .  S
C712        C713   1.402       .  A
C712        F717   1.357       .  S
C713        C714   1.405       .  A
C714        F715   1.357       .  S
C719        C720   1.405       .  A
C719        C724   1.401       .  A
C719        F726   1.356       .  S
C720        C721   1.411       .  A
C721        C722   1.402       .  A
C721        F728   1.358       .  S
C722        C723   1.403       .  A
C722        F727   1.358       .  S
C723        C724   1.409       .  A
C724        F725   1.358       .  S
C729        C730   1.405       .  A
C729        C734   1.402       .  A
C729        F736   1.357       .  S
C730        C731   1.411       .  A
C731        C732   1.397       .  A
C731        F738   1.359       .  S
C732        C733   1.402       .  A
C732        F737   1.358       .  S
C733        C734   1.407       .  A
C734        F735   1.358       .  S
C739        C740   1.406       .  A
C739        C744   1.400       .  A
C739        F746   1.358       .  S
C740        C741   1.408       .  A
C741        C742   1.405       .  A
C741        F748   1.358       .  S
C742        C743   1.405       .  A
C742        F747   1.357       .  S
C743        C744   1.404       .  A
C744        F745   1.357       .  S
C749        C750   1.404       .  A
C749        C754   1.403   1_556  A
C749        F756   1.357       .  S
C750        C751   1.403       .  A
C751        C752   1.399       .  A
C751        F758   1.357       .  S
C752        C753   1.406   1_556  A
C752        F757   1.358       .  S
C753        C754   1.407       .  A
C754        F755   1.358       .  S
C759        C760   1.407       .  A
C759        C764   1.402       .  A
C759        F766   1.358       .  S
C760        C761   1.403       .  A
C761        C762   1.397       .  A
C761        F768   1.357       .  S
C762        C763   1.410       .  A
C762        F767   1.358       .  S
C763        C764   1.408       .  A
C764        F765   1.358   1_655  S
C769        C770   1.410   1_455  A
C769        C774   1.396       .  A
C769        F776   1.358       .  S
C770        C771   1.405       .  A
C771        C772   1.402       .  A
C771        F778   1.357       .  S
C772        C773   1.408   1_655  A
C772        F777   1.358       .  S
C773        C774   1.403       .  A
C774        F775   1.357       .  S
C779        C780   1.405       .  A
C779        C784   1.401   1_554  A
C779        F786   1.356       .  S
C780        C781   1.404       .  A
C781        C782   1.399   1_554  A
C781        F788   1.357   1_455  S
C782        C783   1.405       .  A
C782        F787   1.358   1_455  S
C783        C784   1.405       .  A
C784        F785   1.358       .  S
C789        C790   1.414       .  A
C789        C794   1.397       .  A
C789        F796   1.358       .  S
C790        C791   1.409       .  A
C791        C792   1.402       .  A
C791        F798   1.357       .  S
C792        C793   1.407       .  A
C792        F797   1.356       .  S
C793        C794   1.402       .  A
C794        F795   1.358       .  S
C799        C800   1.404       .  A
C799        C804   1.398       .  A
C799        F806   1.357       .  S
C800        C801   1.410       .  A
C801        C802   1.403       .  A
C801        F808   1.358       .  S
C802        C803   1.404       .  A
C802        F807   1.358       .  S
C803        C804   1.410       .  A
C804        F805   1.359       .  S
C809        C810   1.407       .  A
C809        C814   1.403       .  A
C809        F816   1.358       .  S
C810        C811   1.400       .  A
C811        C812   1.397       .  A
C811        F818   1.358       .  S
C812        C813   1.408       .  A
C812        F817   1.358       .  S
C813        C814   1.404       .  A
C814        F815   1.358       .  S
C819        C820   1.407       .  A
C819        C824   1.406       .  A
C819        F826   1.357       .  S
C820        C821   1.407       .  A
C821        C822   1.400       .  A
C821        F828   1.357       .  S
C822        C823   1.406       .  A
C822        F827   1.358       .  S
C823        C824   1.408       .  A
C824        F825   1.357       .  S
C829        C830   1.410       .  A
C829        C834   1.398       .  A
C829        F836   1.358       .  S
C830        C831   1.403       .  A
C831        C832   1.402       .  A
C831        F838   1.358       .  S
C832        C833   1.409       .  A
C832        F837   1.358       .  S
C833        C834   1.402       .  A
C834        F835   1.358       .  S
C839        C840   1.404       .  A
C839        C844   1.402       .  A
C839        F846   1.357       .  S
C840        C841   1.403       .  A
C841        C842   1.401       .  A
C841        F848   1.357       .  S
C842        C843   1.407       .  A
C842        F847   1.358   1_545  S
C843        C844   1.407       .  A
C844        F845   1.358       .  S
C849        C850   1.407       .  A
C849        C854   1.398       .  A
C849        F856   1.358       .  S
C850        C851   1.406       .  A
C851        C852   1.401       .  A
C851        F858   1.358       .  S
C852        C853   1.405       .  A
C852        F857   1.357       .  S
C853        C854   1.402       .  A
C854        F855   1.357       .  S
C859        C860   1.405       .  A
C859        C864   1.394       .  A
C859        F866   1.355       .  S
C860        C861   1.410       .  A
C861        C862   1.402       .  A
C861        F868   1.358       .  S
C862        C863   1.404       .  A
C862        F867   1.358       .  S
C863        C864   1.406       .  A
C864        F865   1.359       .  S
C869        C870   1.405       .  A
C869        C874   1.395       .  A
C869        F876   1.356       .  S
C870        C871   1.410       .  A
C871        C872   1.403       .  A
C871        F878   1.358       .  S
C872        C873   1.404       .  A
C872        F877   1.358       .  S
C873        C874   1.408       .  A
C874        F875   1.359       .  S
C879        C880   1.403       .  A
C879        C884   1.398       .  A
C879        F886   1.357   1_455  S
C880        C881   1.408       .  A
C881        C882   1.401       .  A
C881        F888   1.357       .  S
C882        C883   1.403       .  A
C882        F887   1.358       .  S
C883        C884   1.406       .  A
C884        F885   1.357   1_455  S
C889        C890   1.403       .  A
C889        C894   1.398       .  A
C889        F896   1.357       .  S
C890        C891   1.408       .  A
C891        C892   1.401       .  A
C891        F898   1.358   1_655  S
C892        C893   1.403       .  A
C892        F897   1.358       .  S
C893        C894   1.404       .  A
C894        F895   1.358       .  S
C899        C900   1.410       .  A
C899        C904   1.406       .  A
C899        F906   1.358       .  S
C900        C901   1.403       .  A
C901        C902   1.399       .  A
C901        F908   1.357       .  S
C902        C903   1.411       .  A
C902        F907   1.358       .  S
C903        C904   1.408       .  A
C904        F905   1.358       .  S
C909        C910   1.402       .  A
C909        C914   1.400       .  A
C909        F916   1.357       .  S
C910        C911   1.403       .  A
C911        C912   1.403       .  A
C911        F918   1.357       .  S
C912        C913   1.408       .  A
C912        F917   1.358   1_655  S
C913        C914   1.409       .  A
C914        F915   1.358       .  S
C919        C920   1.403       .  A
C919        C924   1.395       .  A
C919        F926   1.358       .  S
C920        C921   1.404       .  A
C921        C922   1.404       .  A
C921        F928   1.357   1_565  S
C922        C923   1.407       .  A
C922        F927   1.357   1_565  S
C923        C924   1.406       .  A
C924        F925   1.359       .  S
C929        C930   1.410       .  A
C929        C934   1.398       .  A
C929        F936   1.358       .  S
C930        C931   1.404       .  A
C931        C932   1.405       .  A
C931        F938   1.357       .  S
C932        C933   1.411       .  A
C932        F937   1.358       .  S
C933        C934   1.403       .  A
C934        F935   1.357       .  S
C939        C940   1.415       .  A
C939        C944   1.401       .  A
C939        F946   1.358       .  S
C940        C941   1.409       .  A
C941        C942   1.399       .  A
C941        F948   1.358       .  S
C942        C943   1.406       .  A
C942        F947   1.358       .  S
C943        C944   1.402       .  A
C944        F945   1.357       .  S
C949        C950   1.406       .  A
C949        C954   1.402       .  A
C949        F956   1.357       .  S
C950        C951   1.404       .  A
C951        C952   1.402       .  A
C951        F958   1.357       .  S
C952        C953   1.407       .  A
C952        F957   1.358       .  S
C953        C954   1.406       .  A
C954        F955   1.358       .  S
C959        C960   1.408       .  A
C959        C964   1.399       .  A
C959        F966   1.358       .  S
C960        C961   1.414       .  A
C961        C962   1.399       .  A
C961        F968   1.358       .  S
C962        C963   1.402       .  A
C962        F967   1.357       .  S
C963        C964   1.405       .  A
C964        F965   1.358       .  S
C969        C970   1.401       .  A
C969        C974   1.398       .  A
C969        F976   1.358       .  S
C970        C971   1.405       .  A
C971        C972   1.400       .  A
C971        F978   1.358       .  S
C972        C973   1.404       .  A
C972        F977   1.357       .  S
C973        C974   1.408       .  A
C974        F975   1.358       .  S
C979        C980   1.408       .  A
C979        C984   1.404       .  A
C979        F986   1.357       .  S
C980        C981   1.400       .  A
C981        C982   1.397       .  A
C981        F988   1.357       .  S
C982        C983   1.414       .  A
C982        F987   1.358   1_565  S
C983        C984   1.411       .  A
C984        F985   1.358       .  S
C989        C990   1.406       .  A
C989        C994   1.395       .  A
C989        F996   1.359       .  S
C990        C991   1.407       .  A
C991        C992   1.403       .  A
C991        F998   1.358       .  S
C992        C993   1.403       .  A
C992        F997   1.357       .  S
C993        C994   1.402       .  A
C994        F995   1.358       .  S
C999       C1000   1.402       .  A
C999       C1004   1.400       .  A
C999       F1006   1.357       .  S
C1000      C1001   1.403       .  A
C1001      C1002   1.404       .  A
C1001      F1008   1.357       .  S
C1002      C1003   1.410       .  A
C1002      F1007   1.358       .  S
C1003      C1004   1.408       .  A
C1004      F1005   1.358       .  S
C1009      C1010   1.408       .  A
C1009      C1014   1.399       .  A
C1009      F1016   1.358       .  S
C1010      C1011   1.405       .  A
C1011      C1012   1.401       .  A
C1011      F1018   1.357       .  S
C1012      C1013   1.405       .  A
C1012      F1017   1.358       .  S
C1013      C1014   1.400       .  A
C1014      F1015   1.358   1_545  S
C1019      C1020   1.405       .  A
C1019      C1024   1.400       .  A
C1019      F1026   1.357       .  S
C1020      C1021   1.412   1_565  A
C1021      C1022   1.403       .  A
C1021      F1028   1.358       .  S
C1022      C1023   1.404       .  A
C1022      F1027   1.358       .  S
C1023      C1024   1.409   1_545  A
C1024      F1025   1.358       .  S
C1029      C1030   1.399       .  A
C1029      C1034   1.396       .  A
C1029      F1036   1.357   1_565  S
C1030      C1031   1.407       .  A
C1031      C1032   1.405       .  A
C1031      F1038   1.357       .  S
C1032      C1033   1.411       .  A
C1032      F1037   1.357       .  S
C1033      C1034   1.415       .  A
C1034      F1035   1.358   1_565  S
C1039      C1040   1.405       .  A
C1039      C1044   1.407       .  A
C1039      F1046   1.357       .  S
C1040      C1041   1.405       .  A
C1041      C1042   1.396       .  A
C1041      F1048   1.358       .  S
C1042      C1043   1.405       .  A
C1042      F1047   1.358       .  S
C1043      C1044   1.409       .  A
C1044      F1045   1.358       .  S
C1049      C1050   1.404       .  A
C1049      C1054   1.397       .  A
C1049      F1056   1.356       .  S
C1050      C1051   1.409       .  A
C1051      C1052   1.404       .  A
C1051      F1058   1.358       .  S
C1052      C1053   1.405       .  A
C1052      F1057   1.357       .  S
C1053      C1054   1.409       .  A
C1054      F1055   1.358       .  S
C1059      C1060   1.402       .  A
C1059      C1064   1.401       .  A
C1059      F1066   1.357       .  S
C1060      C1061   1.402       .  A
C1061      C1062   1.395       .  A
C1061      F1068   1.358       .  S
C1062      C1063   1.404       .  A
C1062      F1067   1.358       .  S
C1063      C1064   1.406       .  A
C1064      F1065   1.358   1_545  S
C1069      C1070   1.405       .  A
C1069      C1074   1.403       .  A
C1069      F1076   1.357       .  S
C1070      C1071   1.402       .  A
C1071      C1072   1.397       .  A
C1071      F1078   1.357       .  S
C1072      C1073   1.406       .  A
C1072      F1077   1.358       .  S
C1073      C1074   1.406       .  A
C1074      F1075   1.358       .  S
C1079      C1080   1.415       .  A
C1079      C1084   1.400       .  A
C1079      F1086   1.358       .  S
C1080      C1081   1.410       .  A
C1081      C1082   1.398       .  A
C1081      F1088   1.358       .  S
C1082      C1083   1.405       .  A
C1082      F1087   1.358       .  S
C1083      C1084   1.401       .  A
C1084      F1085   1.357       .  S
C1089      C1090   1.401       .  A
C1089      C1094   1.400       .  A
C1089      F1096   1.358       .  S
C1090      C1091   1.405       .  A
C1091      C1092   1.403       .  A
C1091      F1098   1.358       .  S
C1092      C1093   1.406       .  A
C1092      F1097   1.356       .  S
C1093      C1094   1.410       .  A
C1094      F1095   1.358       .  S
C1099      C1100   1.416       .  A
C1099      C1104   1.398       .  A
C1099      F1106   1.358       .  S
C1100      C1101   1.410       .  A
C1101      C1102   1.404       .  A
C1101      F1108   1.357       .  S
C1102      C1103   1.407       .  A
C1102      F1107   1.357       .  S
C1103      C1104   1.401       .  A
C1104      F1105   1.358       .  S
C1109      C1110   1.409       .  A
C1109      C1114   1.404       .  A
C1109      F1116   1.358       .  S
C1110      C1111   1.405       .  A
C1111      C1112   1.394       .  A
C1111      F1118   1.358       .  S
C1112      C1113   1.402       .  A
C1112      F1117   1.358       .  S
C1113      C1114   1.403       .  A
C1114      F1115   1.357       .  S
C1119      C1120   1.409       .  A
C1119      C1124   1.404       .  A
C1119      F1126   1.356       .  S
C1120      C1121   1.402       .  A
C1121      C1122   1.397       .  A
C1121      F1128   1.357       .  S
C1122      C1123   1.414   1_556  A
C1122      F1127   1.358       .  S
C1123      C1124   1.408   1_554  A
C1124      F1125   1.357   1_556  S
C1129      C1130   1.405       .  A
C1129      C1134   1.395       .  A
C1129      F1136   1.358       .  S
C1130      C1131   1.407       .  A
C1131      C1132   1.403       .  A
C1131      F1138   1.358       .  S
C1132      C1133   1.403       .  A
C1132      F1137   1.357       .  S
C1133      C1134   1.403       .  A
C1134      F1135   1.358       .  S
C1139      C1140   1.402       .  A
C1139      C1144   1.402       .  A
C1139      F1146   1.358       .  S
C1140      C1141   1.406       .  A
C1141      C1142   1.403       .  A
C1141      F1148   1.358       .  S
C1142      C1143   1.406       .  A
C1142      F1147   1.357       .  S
C1143      C1144   1.410       .  A
C1144      F1145   1.358       .  S
C1149      C1150   1.406       .  A
C1149      C1154   1.393       .  A
C1149      F1156   1.359       .  S
C1150      C1151   1.408       .  A
C1151      C1152   1.403       .  A
C1151      F1158   1.357       .  S
C1152      C1153   1.404       .  A
C1152      F1157   1.357       .  S
C1153      C1154   1.402       .  A
C1154      F1155   1.359       .  S
C1159      C1160   1.405       .  A
C1159      C1164   1.400       .  A
C1159      F1166   1.357       .  S
C1160      C1161   1.411       .  A
C1161      C1162   1.401       .  A
C1161      F1168   1.358       .  S
C1162      C1163   1.404       .  A
C1162      F1167   1.358       .  S
C1163      C1164   1.409       .  A
C1164      F1165   1.358       .  S
C1169      C1170   1.406       .  A
C1169      C1174   1.401   1_556  A
C1169      F1176   1.358       .  S
C1170      C1171   1.405       .  A
C1171      C1172   1.402   1_556  A
C1171      F1178   1.358       .  S
C1172      C1173   1.407       .  A
C1172      F1177   1.357       .  S
C1173      C1174   1.404       .  A
C1174      F1175   1.357       .  S
C1179      C1180   1.406       .  A
C1179      C1184   1.393       .  A
C1179      F1186   1.359       .  S
C1180      C1181   1.407       .  A
C1181      C1182   1.402       .  A
C1181      F1188   1.357   1_455  S
C1182      C1183   1.403       .  A
C1182      F1187   1.357   1_455  S
C1183      C1184   1.402       .  A
C1184      F1185   1.358       .  S
C1189      C1190   1.408       .  A
C1189      C1194   1.401       .  A
C1189      F1196   1.358       .  S
C1190      C1191   1.404       .  A
C1191      C1192   1.396       .  A
C1191      F1198   1.356       .  S
C1192      C1193   1.408       .  A
C1192      F1197   1.358       .  S
C1193      C1194   1.406       .  A
C1194      F1195   1.358       .  S
C1199      C1200   1.406       .  A
C1199      C1204   1.403       .  A
C1199      F1206   1.357       .  S
C1200      C1201   1.406       .  A
C1201      C1202   1.399       .  A
C1201      F1208   1.358       .  S
C1202      C1203   1.403       .  A
C1202      F1207   1.357       .  S
C1203      C1204   1.404       .  A
C1204      F1205   1.357   1_655  S
C1209      C1210   1.404       .  A
C1209      C1214   1.403       .  A
C1209      F1216   1.356       .  S
C1210      C1211   1.403       .  A
C1211      C1212   1.398       .  A
C1211      F1218   1.357       .  S
C1212      C1213   1.407       .  A
C1212      F1217   1.358       .  S
C1213      C1214   1.408       .  A
C1214      F1215   1.358       .  S
C1219      C1220   1.408       .  A
C1219      C1224   1.402       .  A
C1219      F1226   1.358       .  S
C1220      C1221   1.404       .  A
C1221      C1222   1.397       .  A
C1221      F1228   1.356       .  S
C1222      C1223   1.409       .  A
C1222      F1227   1.359       .  S
C1223      C1224   1.406       .  A
C1224      F1225   1.357       .  S
C1229      C1230   1.404       .  A
C1229      C1234   1.398       .  A
C1229      F1236   1.357       .  S
C1230      C1231   1.408       .  A
C1231      C1232   1.402       .  A
C1231      F1238   1.358       .  S
C1232      C1233   1.405       .  A
C1232      F1237   1.358       .  S
C1233      C1234   1.410       .  A
C1234      F1235   1.359       .  S
C1239      C1240   1.405       .  A
C1239      C1244   1.405       .  A
C1239      F1246   1.357       .  S
C1240      C1241   1.405       .  A
C1241      C1242   1.400       .  A
C1241      F1248   1.357       .  S
C1242      C1243   1.405       .  A
C1242      F1247   1.358       .  S
C1243      C1244   1.408       .  A
C1244      F1245   1.357       .  S
C1249      C1250   1.416       .  A
C1249      C1254   1.397       .  A
C1249      F1256   1.358       .  S
C1250      C1251   1.409       .  A
C1251      C1252   1.399       .  A
C1251      F1258   1.358       .  S
C1252      C1253   1.404       .  A
C1252      F1257   1.358       .  S
C1253      C1254   1.400       .  A
C1254      F1255   1.358       .  S
C1259      C1260   1.409       .  A
C1259      C1264   1.399       .  A
C1259      F1266   1.358       .  S
C1260      C1261   1.418       .  A
C1261      C1262   1.403       .  A
C1261      F1268   1.358       .  S
C1262      C1263   1.400       .  A
C1262      F1267   1.358       .  S
C1263      C1264   1.405       .  A
C1264      F1265   1.358       .  S
C1269      C1270   1.402       .  A
C1269      C1274   1.395       .  A
C1269      F1276   1.358       .  S
C1270      C1271   1.402       .  A
C1271      C1272   1.400       .  A
C1271      F1278   1.357       .  S
C1272      C1273   1.406       .  A
C1272      F1277   1.358       .  S
C1273      C1274   1.405       .  A
C1274      F1275   1.358       .  S
C1279      C1280   1.412       .  A
C1279      C1284   1.402       .  A
C1279      F1286   1.358       .  S
C1280      C1281   1.415       .  A
C1281      C1282   1.399       .  A
C1281      F1288   1.358       .  S
C1282      C1283   1.400       .  A
C1282      F1287   1.358       .  S
C1283      C1284   1.405       .  A
C1284      F1285   1.357       .  S
C1289      C1290   1.402       .  A
C1289      C1294   1.401       .  A
C1289      F1296   1.357   1_565  S
C1290      C1291   1.403       .  A
C1291      C1292   1.397       .  A
C1291      F1298   1.358       .  S
C1292      C1293   1.404       .  A
C1292      F1297   1.358       .  S
C1293      C1294   1.408       .  A
C1294      F1295   1.358   1_565  S
C1299      C1300   1.403       .  A
C1299      C1304   1.403       .  A
C1299      F1306   1.358       .  S
C1300      C1301   1.404       .  A
C1301      C1302   1.400       .  A
C1301      F1308   1.358       .  S
C1302      C1303   1.406       .  A
C1302      F1307   1.357       .  S
C1303      C1304   1.409       .  A
C1304      F1305   1.358       .  S
C1309      C1310   1.404       .  A
C1309      C1314   1.396       .  A
C1309      F1316   1.358       .  S
C1310      C1311   1.404       .  A
C1311      C1312   1.405       .  A
C1311      F1318   1.357       .  S
C1312      C1313   1.408       .  A
C1312      F1317   1.357       .  S
C1313      C1314   1.406       .  A
C1314      F1315   1.359   1_565  S
C1319      C1320   1.402       .  A
C1319      C1324   1.400       .  A
C1319      F1326   1.357       .  S
C1320      C1321   1.407       .  A
C1321      C1322   1.405       .  A
C1321      F1328   1.357       .  S
C1322      C1323   1.412       .  A
C1322      F1327   1.358       .  S
C1323      C1324   1.414       .  A
C1324      F1325   1.358       .  S
C1329      C1330   1.404       .  A
C1329      C1334   1.398       .  A
C1329      F1336   1.358       .  S
C1330      C1331   1.403       .  A
C1331      C1332   1.404       .  A
C1331      F1338   1.357       .  S
C1332      C1333   1.408       .  A
C1332      F1337   1.358   1_655  S
C1333      C1334   1.405       .  A
C1334      F1335   1.358       .  S
C1339      C1340   1.410       .  A
C1339      C1344   1.400       .  A
C1339      F1346   1.358       .  S
C1340      C1341   1.407       .  A
C1341      C1342   1.403       .  A
C1341      F1348   1.356       .  S
C1342      C1343   1.405       .  A
C1342      F1347   1.358       .  S
C1343      C1344   1.401       .  A
C1344      F1345   1.358       .  S
C1349      C1350   1.408       .  A
C1349      C1354   1.401       .  A
C1349      F1356   1.358       .  S
C1350      C1351   1.404       .  A
C1351      C1352   1.397       .  A
C1351      F1358   1.358       .  S
C1352      C1353   1.403       .  A
C1352      F1357   1.358       .  S
C1353      C1354   1.402       .  A
C1354      F1355   1.357       .  S
C1359      C1360   1.406       .  A
C1359      C1364   1.396       .  A
C1359      F1366   1.358       .  S
C1360      C1361   1.408       .  A
C1361      C1362   1.403       .  A
C1361      F1368   1.358       .  S
C1362      C1363   1.402       .  A
C1362      F1367   1.357       .  S
C1363      C1364   1.402       .  A
C1364      F1365   1.358       .  S
C1369      C1370   1.409       .  A
C1369      C1374   1.398       .  A
C1369      F1376   1.358       .  S
C1370      C1371   1.405       .  A
C1371      C1372   1.405       .  A
C1371      F1378   1.358       .  S
C1372      C1373   1.411       .  A
C1372      F1377   1.358       .  S
C1373      C1374   1.404       .  A
C1374      F1375   1.357       .  S
C1379      C1380   1.407       .  A
C1379      C1384   1.399       .  A
C1379      F1386   1.358   1_565  S
C1380      C1381   1.407       .  A
C1381      C1382   1.403       .  A
C1381      F1388   1.357       .  S
C1382      C1383   1.404       .  A
C1382      F1387   1.357       .  S
C1383      C1384   1.402       .  A
C1384      F1385   1.358   1_565  S
C1389      C1390   1.405       .  A
C1389      C1394   1.397       .  A
C1389      F1396   1.358       .  S
C1390      C1391   1.408       .  A
C1391      C1392   1.403       .  A
C1391      F1398   1.358       .  S
C1392      C1393   1.402       .  A
C1392      F1397   1.357       .  S
C1393      C1394   1.403       .  A
C1394      F1395   1.358       .  S
C1399      C1400   1.405       .  A
C1399      C1404   1.398       .  A
C1399      F1406   1.355       .  S
C1400      C1401   1.411       .  A
C1401      C1402   1.403       .  A
C1401      F1408   1.358       .  S
C1402      C1403   1.405       .  A
C1402      F1407   1.358   1_545  S
C1403      C1404   1.407       .  A
C1404      F1405   1.358       .  S
C1409      C1410   1.404       .  A
C1409      C1414   1.394       .  A
C1409      F1416   1.358       .  S
C1410      C1411   1.399       .  A
C1411      C1412   1.397       .  A
C1411      F1418   1.357       .  S
C1412      C1413   1.414       .  A
C1412      F1417   1.358       .  S
C1413      C1414   1.408       .  A
C1414      F1415   1.358       .  S
C1419      C1420   1.409       .  A
C1419      C1424   1.405   1_556  A
C1419      F1426   1.358       .  S
C1420      C1421   1.408       .  A
C1421      C1422   1.404   1_556  A
C1421      F1428   1.358   1_565  S
C1422      C1423   1.405       .  A
C1422      F1427   1.357       .  S
C1423      C1424   1.406       .  A
C1424      F1425   1.357       .  S
C1429      C1430   1.414       .  A
C1429      C1434   1.397       .  A
C1429      F1436   1.358       .  S
C1430      C1431   1.408       .  A
C1431      C1432   1.398       .  A
C1431      F1438   1.358       .  S
C1432      C1433   1.405       .  A
C1432      F1437   1.358       .  S
C1433      C1434   1.401       .  A
C1434      F1435   1.358       .  S
C1439      C1440   1.404       .  A
C1439      C1444   1.399       .  A
C1439      F1446   1.358       .  S
C1440      C1441   1.401       .  A
C1441      C1442   1.396       .  A
C1441      F1448   1.357       .  S
C1442      C1443   1.413       .  A
C1442      F1447   1.358       .  S
C1443      C1444   1.408       .  A
C1444      F1445   1.358       .  S
C1449      C1450   1.405       .  A
C1449      C1454   1.397       .  A
C1449      F1456   1.358       .  S
C1450      C1451   1.403       .  A
C1451      C1452   1.403       .  A
C1451      F1458   1.357   1_455  S
C1452      C1453   1.408       .  A
C1452      F1457   1.358   1_455  S
C1453      C1454   1.404       .  A
C1454      F1455   1.358       .  S
C1459      C1460   1.404       .  A
C1459      C1464   1.401       .  A
C1459      F1466   1.357       .  S
C1460      C1461   1.403       .  A
C1461      C1462   1.402       .  A
C1461      F1468   1.357       .  S
C1462      C1463   1.414       .  A
C1462      F1467   1.358   1_455  S
C1463      C1464   1.412       .  A
C1464      F1465   1.358       .  S
C1469      C1470   1.414       .  A
C1469      C1474   1.398       .  A
C1469      F1476   1.358       .  S
C1470      C1471   1.408       .  A
C1471      C1472   1.399       .  A
C1471      F1478   1.358       .  S
C1472      C1473   1.406       .  A
C1472      F1477   1.358       .  S
C1473      C1474   1.402       .  A
C1474      F1475   1.357       .  S
C1479      C1480   1.409       .  A
C1479      C1484   1.397       .  A
C1479      F1486   1.358       .  S
C1480      C1481   1.406       .  A
C1481      C1482   1.405       .  A
C1481      F1488   1.357       .  S
C1482      C1483   1.407       .  A
C1482      F1487   1.358       .  S
C1483      C1484   1.400       .  A
C1484      F1485   1.358       .  S
C1489      C1490   1.402       .  A
C1489      C1494   1.396       .  A
C1489      F1496   1.358       .  S
C1490      C1491   1.403       .  A
C1491      C1492   1.406       .  A
C1491      F1498   1.357       .  S
C1492      C1493   1.409       .  A
C1492      F1497   1.358       .  S
C1493      C1494   1.406       .  A
C1494      F1495   1.358       .  S
C1499      C1500   1.403       .  A
C1499      C1504   1.395       .  A
C1499      F1506   1.358       .  S
C1500      C1501   1.404       .  A
C1501      C1502   1.405       .  A
C1501      F1508   1.357       .  S
C1502      C1503   1.409       .  A
C1502      F1507   1.357       .  S
C1503      C1504   1.406       .  A
C1504      F1505   1.359       .  S
C1509      C1510   1.405       .  A
C1509      C1514   1.404       .  A
C1509      F1516   1.358       .  S
C1510      C1511   1.411       .  A
C1511      C1512   1.403       .  A
C1511      F1518   1.358       .  S
C1512      C1513   1.404       .  A
C1512      F1517   1.357       .  S
C1513      C1514   1.410       .  A
C1514      F1515   1.358       .  S
C1519      C1520   1.409       .  A
C1519      C1524   1.406       .  A
C1519      F1526   1.358       .  S
C1520      C1521   1.407       .  A
C1521      C1522   1.398       .  A
C1521      F1528   1.358       .  S
C1522      C1523   1.403       .  A
C1522      F1527   1.357       .  S
C1523      C1524   1.405       .  A
C1524      F1525   1.357       .  S
C1529      C1530   1.403       .  A
C1529      C1534   1.397       .  A
C1529      F1536   1.358       .  S
C1530      C1531   1.407       .  A
C1531      C1532   1.400       .  A
C1531      F1538   1.358       .  S
C1532      C1533   1.402       .  A
C1532      F1537   1.358       .  S
C1533      C1534   1.404       .  A
C1534      F1535   1.358       .  S
C1539      C1540   1.405       .  A
C1539      C1544   1.402       .  A
C1539      F1546   1.357       .  S
C1540      C1541   1.403       .  A
C1541      C1542   1.396       .  A
C1541      F1548   1.358       .  S
C1542      C1543   1.404       .  A
C1542      F1547   1.357   1_565  S
C1543      C1544   1.407       .  A
C1544      F1545   1.358       .  S
C1549      C1550   1.408       .  A
C1549      C1554   1.399   1_565  A
C1549      F1556   1.358   1_565  S
C1550      C1551   1.404       .  A
C1551      C1552   1.397       .  A
C1551      F1558   1.357       .  S
C1552      C1553   1.408       .  A
C1552      F1557   1.358       .  S
C1553      C1554   1.404   1_565  A
C1554      F1555   1.358       .  S
C1559      C1560   1.407   1_556  A
C1559      C1564   1.401       .  A
C1559      F1566   1.358       .  S
C1560      C1561   1.405       .  A
C1561      C1562   1.402   1_554  A
C1561      F1568   1.357       .  S
C1562      C1563   1.405       .  A
C1562      F1567   1.356       .  S
C1563      C1564   1.404       .  A
C1564      F1565   1.358       .  S
C1569      C1570   1.404       .  A
C1569      C1574   1.400       .  A
C1569      F1576   1.358       .  S
C1570      C1571   1.408       .  A
C1571      C1572   1.402       .  A
C1571      F1578   1.358   1_545  S
C1572      C1573   1.402       .  A
C1572      F1577   1.357       .  S
C1573      C1574   1.405       .  A
C1574      F1575   1.358       .  S
C1579      C1580   1.403       .  A
C1579      C1584   1.401       .  A
C1579      F1586   1.357       .  S
C1580      C1581   1.405       .  A
C1581      C1582   1.404       .  A
C1581      F1588   1.357       .  S
C1582      C1583   1.409       .  A
C1582      F1587   1.358       .  S
C1583      C1584   1.407       .  A
C1584      F1585   1.358       .  S
C1589      C1590   1.403       .  A
C1589      C1594   1.399       .  A
C1589      F1596   1.357       .  S
C1590      C1591   1.411       .  A
C1591      C1592   1.406       .  A
C1591      F1598   1.358       .  S
C1592      C1593   1.405       .  A
C1592      F1597   1.358       .  S
C1593      C1594   1.409       .  A
C1594      F1595   1.358       .  S
C1599      C1600   1.405       .  A
C1599      C1604   1.399       .  A
C1599      F1606   1.358       .  S
C1600      C1601   1.408       .  A
C1601      C1602   1.402       .  A
C1601      F1608   1.358       .  S
C1602      C1603   1.402       .  A
C1602      F1607   1.357       .  S
C1603      C1604   1.404       .  A
C1604      F1605   1.358       .  S
C1609      C1610   1.410       .  A
C1609      C1614   1.396       .  A
C1609      F1616   1.358       .  S
C1610      C1611   1.407       .  A
C1611      C1612   1.405       .  A
C1611      F1618   1.357       .  S
C1612      C1613   1.409       .  A
C1612      F1617   1.358       .  S
C1613      C1614   1.403       .  A
C1614      F1615   1.356       .  S
C1619      C1620   1.403       .  A
C1619      C1624   1.397       .  A
C1619      F1626   1.357       .  S
C1620      C1621   1.405       .  A
C1621      C1622   1.404       .  A
C1621      F1628   1.356       .  S
C1622      C1623   1.407       .  A
C1622      F1627   1.358       .  S
C1623      C1624   1.405       .  A
C1624      F1625   1.358       .  S
C1629      C1630   1.403       .  A
C1629      C1634   1.396       .  A
C1629      F1636   1.358       .  S
C1630      C1631   1.407       .  A
C1631      C1632   1.400       .  A
C1631      F1638   1.358       .  S
C1632      C1633   1.402       .  A
C1632      F1637   1.357       .  S
C1633      C1634   1.403       .  A
C1634      F1635   1.358       .  S
C1639      C1640   1.403       .  A
C1639      C1644   1.403       .  A
C1639      F1646   1.358       .  S
C1640      C1641   1.402       .  A
C1641      C1642   1.396       .  A
C1641      F1648   1.358       .  S
C1642      C1643   1.405       .  A
C1642      F1647   1.358       .  S
C1643      C1644   1.408       .  A
C1644      F1645   1.358       .  S
C1649      C1650   1.410       .  A
C1649      C1654   1.401       .  A
C1649      F1656   1.358       .  S
C1650      C1651   1.405       .  A
C1651      C1652   1.406       .  A
C1651      F1658   1.358       .  S
C1652      C1653   1.413       .  A
C1652      F1657   1.358       .  S
C1653      C1654   1.404       .  A
C1654      F1655   1.357       .  S
C1659      C1660   1.404       .  A
C1659      C1664   1.398       .  A
C1659      F1666   1.358       .  S
C1660      C1661   1.406       .  A
C1661      C1662   1.402       .  A
C1661      F1668   1.358       .  S
C1662      C1663   1.405       .  A
C1662      F1667   1.357       .  S
C1663      C1664   1.404       .  A
C1664      F1665   1.356       .  S
C1669      C1670   1.401       .  A
C1669      C1674   1.396       .  A
C1669      F1676   1.358       .  S
C1670      C1671   1.402       .  A
C1671      C1672   1.396       .  A
C1671      F1678   1.358       .  S
C1672      C1673   1.408       .  A
C1672      F1677   1.358       .  S
C1673      C1674   1.413       .  A
C1674      F1675   1.358       .  S
C1679      C1680   1.404       .  A
C1679      C1684   1.397       .  A
C1679      F1686   1.357       .  S
C1680      C1681   1.405       .  A
C1681      C1682   1.404       .  A
C1681      F1688   1.357       .  S
C1682      C1683   1.406       .  A
C1682      F1687   1.358       .  S
C1683      C1684   1.405       .  A
C1684      F1685   1.358       .  S
C1689      C1690   1.407       .  A
C1689      C1694   1.396       .  A
C1689      F1696   1.358       .  S
C1690      C1691   1.405       .  A
C1691      C1692   1.401       .  A
C1691      F1698   1.358       .  S
C1692      C1693   1.406       .  A
C1692      F1697   1.358       .  S
C1693      C1694   1.400       .  A
C1694      F1695   1.358   1_655  S
C1699      C1700   1.405       .  A
C1699      C1704   1.405       .  A
C1699      F1706   1.357       .  S
C1700      C1701   1.403       .  A
C1701      C1702   1.394       .  A
C1701      F1708   1.358       .  S
C1702      C1703   1.405       .  A
C1702      F1707   1.357       .  S
C1703      C1704   1.408       .  A
C1704      F1705   1.358       .  S
C1709      C1710   1.403       .  A
C1709      C1714   1.400       .  A
C1709      F1716   1.358       .  S
C1710      C1711   1.410       .  A
C1711      C1712   1.405   1_455  A
C1711      F1718   1.358   1_455  S
C1712      C1713   1.405   1_655  A
C1712      F1717   1.357       .  S
C1713      C1714   1.412       .  A
C1714      F1715   1.358       .  S
C1719      C1720   1.402       .  A
C1719      C1724   1.397       .  A
C1719      F1726   1.357       .  S
C1720      C1721   1.406       .  A
C1721      C1722   1.404       .  A
C1721      F1728   1.357       .  S
C1722      C1723   1.412       .  A
C1722      F1727   1.358       .  S
C1723      C1724   1.413       .  A
C1724      F1725   1.358   1_455  S
