geometry optimzed in LAMMPS
_audit_creation_date              2020-11-30 
_audit_creation_method            'lammps2cif' 
_symmetry_space_group_name_H-M    'P1' 
_symmetry_Int_Tables_number       1 
_symmetry_cell_setting            triclinic 
loop_ 
_symmetry_equiv_pos_as_xyz 
  x,y,z 
_cell_length_a                    40.40485182022629 
_cell_length_b                    40.39547027302963 
_cell_length_c                    36.95129283067676 
_cell_angle_alpha                 90.07258799217254 
_cell_angle_beta                  90.07300328306515 
_cell_angle_gamma                 89.98974272845362 
loop_ 
_atom_site_label 
_atom_site_type_symbol 
_atom_site_fract_x 
_atom_site_fract_y 
_atom_site_fract_z 
_atom_site_charge 
O1          O  0.47274438  0.96477620  0.46122077    -0.72140
O2          O  0.47226106  0.03513337  0.03811421    -0.73120
O3          O  0.47271656  0.03511446  0.46124832    -0.61740
O4          O  0.47235187  0.96480237  0.03809527    -0.70150
O5          O  0.52736475  0.96485350  0.03850445    -0.69700
O6          O  0.52772946  0.03513466  0.46170914    -0.60950
O7          O  0.52727465  0.03518665  0.03857480    -0.73460
O8          O  0.52775766  0.96479930  0.46163055    -0.72240
Cu9        Cu  0.47058022  0.99995518  0.99965365     1.04560
Cu10       Cu  0.52946974  0.99999469  0.50011959     1.04330
C11         C  0.50031595  0.95383574  0.44935654     0.94060
C12         C  0.49968167  0.04610955  0.05041366     0.93200
C13         C  0.50029086  0.04606730  0.44942930     0.85350
C14         C  0.49981211  0.95388975  0.05035563     0.91620
N15         N  0.50142866  0.15037920  0.32471724    -0.26480
N16         N  0.50068707  0.12256067  0.30584722    -0.34340
C17         C  0.50037795  0.09671256  0.32865179     0.01860
C18         C  0.50094674  0.10884383  0.36348450     0.07880
C19         C  0.50161031  0.14292874  0.36026513    -0.05220
H20         H  0.49970714  0.07100850  0.32040894     0.08550
H21         H  0.50208395  0.16091972  0.38197738     0.09750
Cu22       Cu  0.49989799  0.12063267  0.25003082     0.44170
Cu23       Cu  0.50173494  0.19659210  0.30014969     0.41990
Cu24       Cu  0.49820312  0.19654929  0.20017011     0.43880
N25         N  0.49914027  0.12254384  0.19421941    -0.33870
N26         N  0.49845636  0.15036904  0.17543889    -0.28120
C27         C  0.49830209  0.14293921  0.13986723    -0.04220
C28         C  0.49892213  0.10885686  0.13653758     0.07990
C29         C  0.49943827  0.09670550  0.17133024     0.01790
H30         H  0.49788399  0.16094208  0.11821500     0.09440
H31         H  0.50007552  0.07099653  0.17948757     0.08520
N32         N  0.49918654  0.23875141  0.23231302    -0.35320
N33         N  0.50077589  0.23878288  0.26807711    -0.27500
C34         C  0.50135132  0.27026668  0.27988501    -0.02740
C35         C  0.49998312  0.29118813  0.25020192     0.05870
C36         C  0.49861721  0.27020564  0.22051698     0.03960
H37         H  0.50232965  0.27723304  0.30813023     0.09070
H38         H  0.49764381  0.27710648  0.19227173     0.07900
N39         N  0.50030711  0.84950542  0.32436565    -0.26480
N40         N  0.50026948  0.87733492  0.30557735    -0.34340
C41         C  0.50032169  0.90318204  0.32845819     0.01860
C42         C  0.50039965  0.89103748  0.36325714     0.07880
C43         C  0.50038371  0.85694589  0.35993741    -0.05220
H44         H  0.50030362  0.92889559  0.32028950     0.08550
H45         H  0.50042509  0.83894614  0.38159685     0.09750
Cu46       Cu  0.50015559  0.87925852  0.24976129     0.44170
Cu47       Cu  0.50026164  0.80330772  0.29963056     0.41990
Cu48       Cu  0.50005493  0.80330399  0.19959175     0.43880
N49         N  0.50002660  0.87735473  0.19393806    -0.33870
N50         N  0.49999051  0.84953801  0.17504774    -0.28120
C51         C  0.49988727  0.85700766  0.13950361    -0.04220
C52         C  0.49985261  0.89110209  0.13630729     0.07990
C53         C  0.49994699  0.90321938  0.17115130     0.01790
H54         H  0.49983472  0.83902474  0.11777788     0.09440
H55         H  0.49995167  0.92892665  0.17941465     0.08520
N56         N  0.50011219  0.76108543  0.23165419    -0.35320
N57         N  0.50018665  0.76109970  0.26744641    -0.27500
C58         C  0.50019658  0.72964058  0.27923459    -0.02740
C59         C  0.50012231  0.70860208  0.24950756     0.05870
C60         C  0.50007141  0.72961025  0.21981180     0.03960
H61         H  0.50031620  0.72284692  0.30751653     0.09070
H62         H  0.49994172  0.72277982  0.19152096     0.07900
O63         O  0.03526102  0.47224499  0.46128004    -0.72140
O64         O  0.96504022  0.47218018  0.03817214    -0.73120
O65         O  0.96494526  0.47228555  0.46130185    -0.61740
O66         O  0.03535419  0.47212604  0.03814881    -0.70150
O67         O  0.03538419  0.52715375  0.03832179    -0.69700
O68         O  0.96496988  0.52731311  0.46146538    -0.60950
O69         O  0.96507105  0.52720708  0.03833476    -0.73460
O70         O  0.03528503  0.52727190  0.46145378    -0.72240
Cu71       Cu  0.00014920  0.47027016  0.49971935     1.04560
Cu72       Cu  0.00017849  0.52917519  0.49989983     1.04330
C73         C  0.04620192  0.49977036  0.44930530     0.94060
C74         C  0.95412828  0.49968643  0.05031685     0.93200
C75         C  0.95400097  0.49982167  0.44932449     0.85350
C76         C  0.04632449  0.49961364  0.05029523     0.91620
N77         N  0.15051488  0.49988416  0.32461350    -0.26480
N78         N  0.12270751  0.49978586  0.30571825    -0.34340
C79         C  0.09684658  0.49977235  0.32850099     0.01860
C80         C  0.10895837  0.49986658  0.36334579     0.07880
C81         C  0.14304399  0.49993697  0.36015574    -0.05220
H82         H  0.07114629  0.49968106  0.32023449     0.08550
H83         H  0.16102037  0.49999839  0.38188393     0.09750
Cu84       Cu  0.12081004  0.49963004  0.24989600     0.44170
Cu85       Cu  0.19673925  0.49986787  0.30008719     0.41990
Cu86       Cu  0.19674932  0.49945447  0.20005575     0.43880
N87         N  0.12275157  0.49949913  0.19408211    -0.33870
N88         N  0.15058184  0.49943234  0.17530791    -0.28120
C89         C  0.14316275  0.49939896  0.13973328    -0.04220
C90         C  0.10908306  0.49944804  0.13639643     0.07990
C91         C  0.09692191  0.49951067  0.17118688     0.01790
H92         H  0.16116912  0.49936574  0.11808467     0.09440
H93         H  0.07121026  0.49958288  0.17933967     0.08520
N94         N  0.23893257  0.49953895  0.23223968    -0.35320
N95         N  0.23894634  0.49972541  0.26803474    -0.27500
C96         C  0.27041483  0.49976676  0.27987734    -0.02740
C97         C  0.29139344  0.49958481  0.25017756     0.05870
C98         C  0.27038272  0.49944388  0.22044941     0.03960
H99         H  0.27728368  0.49972860  0.30816104     0.09070
H100        H  0.27721181  0.49947961  0.19217388     0.07900
N101        N  0.84973345  0.49980671  0.32431462    -0.26480
N102        N  0.87756521  0.49984930  0.30554298    -0.34340
C103        C  0.90339383  0.49989045  0.32843965     0.01860
C104        C  0.89123181  0.49987490  0.36322949     0.07880
C105        C  0.85715153  0.49982048  0.35989018    -0.05220
H106        H  0.92910583  0.49992222  0.32028806     0.08550
H107        H  0.83914436  0.49978734  0.38153787     0.09750
Cu108      Cu  0.87951240  0.49983759  0.24972984     0.44170
Cu109      Cu  0.80356588  0.49972910  0.29955754     0.41990
Cu110      Cu  0.80358508  0.49983803  0.19952934     0.43860
N111        N  0.87762017  0.49980441  0.19390766    -0.33870
N112        N  0.84981432  0.49980800  0.17500932    -0.28120
C113        C  0.85728910  0.49976898  0.13946798    -0.04220
C114        C  0.89137523  0.49973902  0.13628161     0.07990
C115        C  0.90348359  0.49976358  0.17112796     0.01790
H116        H  0.83931494  0.49975828  0.11773759     0.09440
H117        H  0.92918319  0.49974922  0.17939761     0.08520
N118        N  0.76137111  0.49976924  0.23157494    -0.35320
N119        N  0.76138216  0.49971822  0.26736650    -0.27500
C120        C  0.72993202  0.49967352  0.27915283    -0.02740
C121        C  0.70890234  0.49969998  0.24942474     0.05870
C122        C  0.72990430  0.49976007  0.21972939     0.03960
H123        H  0.72313928  0.49955663  0.30743425     0.09070
H124        H  0.72307420  0.49987178  0.19143884     0.07900
O125        O  0.50058082  0.45024282  0.27995451    -0.72140
O126        O  0.50004698  0.54947717  0.27963037    -0.73120
O127        O  0.45062454  0.49973629  0.27997594    -0.61740
O128        O  0.54984427  0.50008032  0.27959560    -0.70150
O129        O  0.54959125  0.49939406  0.21959713    -0.69700
O130        O  0.45036555  0.49972520  0.21996603    -0.60950
O131        O  0.50014084  0.54926072  0.21962911    -0.73460
O132        O  0.49963713  0.45000805  0.21993315    -0.72240
Cu133      Cu  0.50027647  0.49988848  0.28187726     1.04560
Cu134      Cu  0.49993421  0.49959732  0.21769045     1.04330
C135        C  0.50009510  0.43440876  0.24999315     0.94060
C136        C  0.50008904  0.56511607  0.24958790     0.93200
C137        C  0.43476054  0.49970653  0.25002557     0.85350
C138        C  0.56546036  0.49972873  0.24954396     0.91620
C139        C  0.65438388  0.50125583  0.28211994    -0.12540
C140        C  0.67211027  0.49968982  0.24941830     0.09610
C141        C  0.65427329  0.49812460  0.21673246    -0.12540
C142        C  0.61968763  0.49815465  0.21676226    -0.12540
C143        C  0.60208039  0.49970955  0.24946462     0.09610
C144        C  0.61981263  0.50124455  0.28213536    -0.12540
H145        H  0.66703703  0.50257873  0.30787002     0.13600
H146        H  0.66685518  0.49679837  0.19097383     0.13600
H147        H  0.60675256  0.49690221  0.19110937     0.13600
H148        H  0.60698494  0.50250423  0.30781708     0.13600
C149        C  0.38056225  0.50398071  0.28252541    -0.12540
C150        C  0.39815691  0.49963675  0.25011461     0.09610
C151        C  0.38043529  0.49522468  0.21774953    -0.12540
C152        C  0.34586381  0.49512476  0.21778468    -0.12540
C153        C  0.32815957  0.49956652  0.25018035     0.09610
C154        C  0.34597809  0.50401086  0.28255489    -0.12540
H155        H  0.39351219  0.50756448  0.30790878     0.13600
H156        H  0.39327842  0.49166266  0.19233234     0.13600
H157        H  0.33317009  0.49137904  0.19233468     0.13600
H158        H  0.33336078  0.50772732  0.30802229     0.13600
C159        C  0.07079142  0.49955098  0.07848445    -0.12470
C160        C  0.08960175  0.49949585  0.10384297    -0.14020
C161        C  0.08943358  0.49983714  0.39581960    -0.12470
C162        C  0.07062401  0.49980179  0.42113034    -0.14020
C163        C  0.92971010  0.49967429  0.07849623    -0.12470
C164        C  0.91090254  0.49969423  0.10380912    -0.14020
C165        C  0.91071464  0.49988145  0.39578320    -0.12470
C166        C  0.92952961  0.49986870  0.42113848    -0.14020
C167        C  0.50141681  0.65395992  0.21679921    -0.12540
C168        C  0.50009920  0.67179757  0.24949712     0.09610
C169        C  0.49876263  0.65405877  0.28220286    -0.12540
C170        C  0.49877459  0.61947684  0.28220973    -0.12540
C171        C  0.50008034  0.60174660  0.24952634     0.09610
C172        C  0.50138630  0.61936645  0.21682082    -0.12540
H173        H  0.50254629  0.66654620  0.19103433     0.13600
H174        H  0.49763905  0.66671048  0.30796353     0.13600
H175        H  0.49770369  0.60663927  0.30789415     0.13600
H176        H  0.50245176  0.60643483  0.19115695     0.13600
C177        C  0.50900445  0.34568650  0.28141119    -0.12540
C178        C  0.49998256  0.32790432  0.25018385     0.09610
C179        C  0.49097203  0.34556204  0.21891821    -0.12540
C180        C  0.49109984  0.38014280  0.21884322    -0.12540
C181        C  0.50004573  0.39784048  0.25008475     0.09610
C182        C  0.50893986  0.38027616  0.28138823    -0.12540
H183        H  0.51642202  0.33298733  0.30586536     0.13600
H184        H  0.48352685  0.33277459  0.19449627     0.13600
H185        H  0.48389070  0.39302986  0.19438506     0.13600
H186        H  0.51616843  0.39327163  0.30580466     0.13600
C187        C  0.49920450  0.08937041  0.10398585    -0.12470
C188        C  0.49946303  0.07056475  0.07862074    -0.14020
C189        C  0.50046872  0.07051677  0.42127725    -0.12470
C190        C  0.50069655  0.08933495  0.39597157    -0.14020
C191        C  0.49972290  0.92944985  0.07852127    -0.12470
C192        C  0.49975188  0.91063135  0.10383016    -0.14020
C193        C  0.50045664  0.91054480  0.39580113    -0.12470
C194        C  0.50044784  0.92936903  0.42115499    -0.14020
O195        O  0.47274434  0.96477620  0.96122077    -0.72140
O196        O  0.47226109  0.03513336  0.53811421    -0.73120
O197        O  0.47271654  0.03511447  0.96124832    -0.61740
O198        O  0.47235192  0.96480236  0.53809527    -0.70150
O199        O  0.52736479  0.96485350  0.53850445    -0.69700
O200        O  0.52772944  0.03513466  0.96170915    -0.60950
O201        O  0.52727469  0.03518665  0.53857480    -0.73460
O202        O  0.52775762  0.96479930  0.96163055    -0.72240
Cu203      Cu  0.47058026  0.99995518  0.49965365     1.04560
Cu204      Cu  0.52946970  0.99999469  0.00011960     1.04330
C205        C  0.50031591  0.95383574  0.94935654     0.94060
C206        C  0.49968170  0.04610955  0.55041366     0.93200
C207        C  0.50029084  0.04606730  0.94942930     0.85350
C208        C  0.49981216  0.95388975  0.55035563     0.91620
N209        N  0.50142867  0.15037920  0.82471724    -0.26480
N210        N  0.50068709  0.12256067  0.80584722    -0.34340
C211        C  0.50037797  0.09671257  0.82865179     0.01860
C212        C  0.50094674  0.10884383  0.86348450     0.07880
C213        C  0.50161031  0.14292874  0.86026513    -0.05220
H214        H  0.49970716  0.07100850  0.82040894     0.08550
H215        H  0.50208394  0.16091972  0.88197738     0.09750
Cu216      Cu  0.49989802  0.12063267  0.75003082     0.44170
Cu217      Cu  0.50173495  0.19659210  0.80014969     0.41990
Cu218      Cu  0.49820314  0.19654929  0.70017011     0.43880
N219        N  0.49914031  0.12254384  0.69421941    -0.33870
N220        N  0.49845638  0.15036904  0.67543889    -0.28120
C221        C  0.49830211  0.14293921  0.63986723    -0.04220
C222        C  0.49892216  0.10885686  0.63653758     0.07990
C223        C  0.49943831  0.09670550  0.67133024     0.01790
H224        H  0.49788401  0.16094208  0.61821500     0.09440
H225        H  0.50007557  0.07099653  0.67948757     0.08520
N226        N  0.49918656  0.23875141  0.73231301    -0.35320
N227        N  0.50077591  0.23878288  0.76807711    -0.27500
C228        C  0.50135133  0.27026668  0.77988500    -0.02740
C229        C  0.49998314  0.29118813  0.75020191     0.05870
C230        C  0.49861722  0.27020564  0.72051697     0.03960
H231        H  0.50232967  0.27723305  0.80813023     0.09070
H232        H  0.49764383  0.27710648  0.69227173     0.07900
N233        N  0.50030708  0.84950542  0.82436565    -0.26480
N234        N  0.50026945  0.87733492  0.80557735    -0.34340
C235        C  0.50032166  0.90318204  0.82845819     0.01860
C236        C  0.50039961  0.89103748  0.86325714     0.07880
C237        C  0.50038367  0.85694590  0.85993741    -0.05220
H238        H  0.50030360  0.92889559  0.82028950     0.08550
H239        H  0.50042505  0.83894615  0.88159685     0.09750
Cu240      Cu  0.50015559  0.87925852  0.74976129     0.44170
Cu241      Cu  0.50026162  0.80330772  0.79963056     0.41990
Cu242      Cu  0.50005495  0.80330399  0.69959176     0.43880
N243        N  0.50002662  0.87735473  0.69393806    -0.33870
N244        N  0.49999054  0.84953801  0.67504774    -0.28120
C245        C  0.49988731  0.85700766  0.63950362    -0.04220
C246        C  0.49985265  0.89110209  0.63630729     0.07990
C247        C  0.49994701  0.90321938  0.67115130     0.01790
H248        H  0.49983477  0.83902474  0.61777788     0.09440
H249        H  0.49995170  0.92892665  0.67941465     0.08520
N250        N  0.50011219  0.76108543  0.73165420    -0.35320
N251        N  0.50018664  0.76109970  0.76744642    -0.27500
C252        C  0.50019656  0.72964058  0.77923459    -0.02740
C253        C  0.50012230  0.70860208  0.74950756     0.05870
C254        C  0.50007141  0.72961025  0.71981180     0.03960
H255        H  0.50031617  0.72284692  0.80751653     0.09070
H256        H  0.49994174  0.72277983  0.69152097     0.07900
O257        O  0.03526101  0.47224503  0.96128004    -0.72140
O258        O  0.96504023  0.47218015  0.53817214    -0.73120
O259        O  0.96494525  0.47228558  0.96130185    -0.61740
O260        O  0.03535420  0.47212601  0.53814881    -0.70150
O261        O  0.03538420  0.52715371  0.53832179    -0.69700
O262        O  0.96496987  0.52731315  0.96146538    -0.60950
O263        O  0.96507106  0.52720705  0.53833476    -0.73460
O264        O  0.03528502  0.52727193  0.96145378    -0.72240
Cu265      Cu  0.00014919  0.47027019  0.99971935     1.04560
Cu266      Cu  0.00017848  0.52917523  0.99989983     1.04330
C267        C  0.04620192  0.49977039  0.94930530     0.94060
C268        C  0.95412829  0.49968640  0.55031685     0.93200
C269        C  0.95400097  0.49982171  0.94932449     0.85350
C270        C  0.04632450  0.49961361  0.55029523     0.91620
N271        N  0.15051488  0.49988419  0.82461351    -0.26480
N272        N  0.12270751  0.49978591  0.80571826    -0.34340
C273        C  0.09684658  0.49977240  0.82850099     0.01860
C274        C  0.10895837  0.49986662  0.86334580     0.07880
C275        C  0.14304399  0.49993699  0.86015575    -0.05220
H276        H  0.07114629  0.49968113  0.82023449     0.08550
H277        H  0.16102036  0.49999840  0.88188394     0.09750
Cu278      Cu  0.12081004  0.49963009  0.74989600     0.44170
Cu279      Cu  0.19673925  0.49986787  0.80008720     0.41990
Cu280      Cu  0.19674932  0.49945446  0.70005576     0.43880
N281        N  0.12275158  0.49949915  0.69408211    -0.33870
N282        N  0.15058184  0.49943234  0.67530792    -0.28120
C283        C  0.14316276  0.49939894  0.63973328    -0.04220
C284        C  0.10908306  0.49944803  0.63639644     0.07990
C285        C  0.09692191  0.49951069  0.67118688     0.01790
H286        H  0.16116913  0.49936570  0.61808468     0.09440
H287        H  0.07121027  0.49958292  0.67933967     0.08520
N288        N  0.23893257  0.49953893  0.73223969    -0.35320
N289        N  0.23894634  0.49972539  0.76803475    -0.27500
C290        C  0.27041483  0.49976675  0.77987735    -0.02740
C291        C  0.29139344  0.49958479  0.75017757     0.05870
C292        C  0.27038272  0.49944386  0.72044942     0.03960
H293        H  0.27728368  0.49972859  0.80816105     0.09070
H294        H  0.27721181  0.49947958  0.69217389     0.07900
N295        N  0.84973345  0.49980673  0.82431462    -0.26480
N296        N  0.87756521  0.49984930  0.80554297    -0.34340
C297        C  0.90339383  0.49989045  0.82843965     0.01860
C298        C  0.89123181  0.49987492  0.86322948     0.07880
C299        C  0.85715153  0.49982051  0.85989018    -0.05220
H300        H  0.92910583  0.49992221  0.82028806     0.08550
H301        H  0.83914436  0.49978739  0.88153786     0.09750
Cu302      Cu  0.87951240  0.49983757  0.74972984     0.44170
Cu303      Cu  0.80356588  0.49972912  0.79955753     0.41990
Cu304      Cu  0.80358508  0.49983802  0.69952933     0.43860
N305        N  0.87762017  0.49980438  0.69390766    -0.33870
N306        N  0.84981433  0.49980797  0.67500931    -0.28120
C307        C  0.85728911  0.49976895  0.63946797    -0.04220
C308        C  0.89137523  0.49973898  0.63628161     0.07990
C309        C  0.90348360  0.49976354  0.67112796     0.01790
H310        H  0.83931495  0.49975825  0.61773758     0.09440
H311        H  0.92918320  0.49974918  0.67939761     0.08520
N312        N  0.76137111  0.49976924  0.73157493    -0.35320
N313        N  0.76138216  0.49971824  0.76736649    -0.27500
C314        C  0.72993202  0.49967355  0.77915282    -0.02740
C315        C  0.70890234  0.49970000  0.74942473     0.05870
C316        C  0.72990431  0.49976008  0.71972938     0.03960
H317        H  0.72313928  0.49955666  0.80743424     0.09070
H318        H  0.72307420  0.49987178  0.69143883     0.07900
O319        O  0.50058083  0.45024282  0.77995451    -0.72140
O320        O  0.50004697  0.54947717  0.77963037    -0.73120
O321        O  0.45062455  0.49973628  0.77997594    -0.61740
O322        O  0.54984427  0.50008033  0.77959560    -0.70150
O323        O  0.54959125  0.49939407  0.71959712    -0.69700
O324        O  0.45036555  0.49972519  0.71996603    -0.60950
O325        O  0.50014084  0.54926072  0.71962911    -0.73460
O326        O  0.49963714  0.45000805  0.71993315    -0.72240
Cu327      Cu  0.50027647  0.49988848  0.78187726     1.04560
Cu328      Cu  0.49993421  0.49959732  0.71769045     1.04330
C329        C  0.50009511  0.43440876  0.74999315     0.94060
C330        C  0.50008903  0.56511607  0.74958790     0.93200
C331        C  0.43476054  0.49970652  0.75002557     0.85350
C332        C  0.56546036  0.49972874  0.74954395     0.91620
C333        C  0.65438388  0.50125585  0.78211993    -0.12540
C334        C  0.67211028  0.49968984  0.74941829     0.09610
C335        C  0.65427329  0.49812462  0.71673245    -0.12540
C336        C  0.61968763  0.49815466  0.71676225    -0.12540
C337        C  0.60208039  0.49970956  0.74946461     0.09610
C338        C  0.61981263  0.50124457  0.78213535    -0.12540
H339        H  0.66703703  0.50257875  0.80787001     0.13600
H340        H  0.66685518  0.49679838  0.69097382     0.13600
H341        H  0.60675256  0.49690223  0.69110936     0.13600
H342        H  0.60698494  0.50250425  0.80781707     0.13600
C343        C  0.38056225  0.50398068  0.78252542    -0.12540
C344        C  0.39815691  0.49963674  0.75011462     0.09610
C345        C  0.38043530  0.49522467  0.71774953    -0.12540
C346        C  0.34586381  0.49512475  0.71778468    -0.12540
C347        C  0.32815957  0.49956650  0.75018036     0.09610
C348        C  0.34597809  0.50401083  0.78255490    -0.12540
H349        H  0.39351219  0.50756445  0.80790878     0.13600
H350        H  0.39327842  0.49166266  0.69233234     0.13600
H351        H  0.33317009  0.49137905  0.69233469     0.13600
H352        H  0.33336078  0.50772728  0.80802231     0.13600
C353        C  0.07079143  0.49955096  0.57848445    -0.12470
C354        C  0.08960175  0.49949583  0.60384297    -0.14020
C355        C  0.08943358  0.49983718  0.89581960    -0.12470
C356        C  0.07062400  0.49980182  0.92113034    -0.14020
C357        C  0.92971010  0.49967425  0.57849623    -0.12470
C358        C  0.91090255  0.49969420  0.60380911    -0.14020
C359        C  0.91071463  0.49988148  0.89578320    -0.12470
C360        C  0.92952961  0.49986873  0.92113848    -0.14020
C361        C  0.50141679  0.65395992  0.71679922    -0.12540
C362        C  0.50009919  0.67179758  0.74949713     0.09610
C363        C  0.49876262  0.65405877  0.78220286    -0.12540
C364        C  0.49877458  0.61947684  0.78220973    -0.12540
C365        C  0.50008033  0.60174661  0.74952634     0.09610
C366        C  0.50138629  0.61936645  0.71682082    -0.12540
H367        H  0.50254628  0.66654620  0.69103433     0.13600
H368        H  0.49763904  0.66671048  0.80796354     0.13600
H369        H  0.49770368  0.60663928  0.80789415     0.13600
H370        H  0.50245174  0.60643484  0.69115695     0.13600
C371        C  0.50900446  0.34568650  0.78141118    -0.12540
C372        C  0.49998258  0.32790432  0.75018384     0.09610
C373        C  0.49097205  0.34556204  0.71891820    -0.12540
C374        C  0.49109986  0.38014280  0.71884321    -0.12540
C375        C  0.50004575  0.39784048  0.75008474     0.09610
C376        C  0.50893987  0.38027616  0.78138823    -0.12540
H377        H  0.51642203  0.33298733  0.80586536     0.13600
H378        H  0.48352688  0.33277459  0.69449626     0.13600
H379        H  0.48389072  0.39302986  0.69438505     0.13600
H380        H  0.51616844  0.39327163  0.80580466     0.13600
C381        C  0.49920453  0.08937040  0.60398585    -0.12470
C382        C  0.49946306  0.07056475  0.57862074    -0.14020
C383        C  0.50046870  0.07051677  0.92127725    -0.12470
C384        C  0.50069654  0.08933495  0.89597157    -0.14020
C385        C  0.49972295  0.92944985  0.57852127    -0.12470
C386        C  0.49975192  0.91063135  0.60383016    -0.14020
C387        C  0.50045660  0.91054480  0.89580113    -0.12470
C388        C  0.50044780  0.92936903  0.92115499    -0.14020
loop_ 
_geom_bond_atom_site_label_1 
_geom_bond_atom_site_label_2 
_geom_bond_distance 
_geom_bond_site_symmetry_2 
_ccdc_geom_bond_type 
O1           C11   1.276       .  A
O1         Cu203   2.010       .  S
O2           C12   1.276       .  A
O2           Cu9   2.010   1_544  S
O3           C13   1.277       .  A
O3         Cu203   2.011   1_545  S
O4           C14   1.277       .  A
O4           Cu9   2.011   1_554  S
O5           C14   1.276       .  A
O5         Cu204   2.010       .  S
O6           C13   1.276       .  A
O6          Cu10   2.010   1_545  S
O7           C12   1.277       .  A
O7         Cu204   2.011   1_545  S
O8           C11   1.277       .  A
O8          Cu10   2.011       .  S
Cu9         O195   2.010       .  S
Cu9         O197   2.011   1_565  S
Cu9        Cu204   2.379   1_556  S
Cu10        O199   2.010       .  S
Cu10        O201   2.011   1_565  S
Cu10       Cu203   2.379       .  S
C11         C194   1.435       .  S
C12         C188   1.435       .  S
C13         C189   1.435       .  S
C14         C191   1.435       .  S
N15          N16   1.322       .  A
N15          C19   1.348       .  A
N15         Cu23   2.077       .  S
N16          C17   1.343       .  A
N16         Cu22   2.064       .  S
C17          C18   1.377       .  A
C17          H20   1.082       .  S
C18         C190   1.437       .  S
C18          C19   1.382       .  A
C19          H21   1.082       .  S
Cu22         N25   2.064       .  S
Cu23         N33   2.077       .  S
Cu24         N26   2.076       .  S
Cu24         N32   2.077       .  S
N25          N26   1.322       .  A
N25          C29   1.343       .  A
N26          C27   1.348       .  A
C27          C28   1.382       .  A
C27          H30   1.082       .  S
C28         C187   1.437       .  S
C28          C29   1.377       .  A
C29          H31   1.082       .  S
N32          N33   1.323       .  A
N32          C36   1.344       .  A
N33          C34   1.344       .  A
C34          C35   1.387       .  A
C34          H37   1.081       .  S
C35          C36   1.386       .  A
C35         C178   1.483       .  S
C36          H38   1.081       .  S
N39          N40   1.322       .  A
N39          C43   1.348       .  A
N39         Cu47   2.077       .  S
N40          C41   1.343       .  A
N40         Cu46   2.064       .  S
C41          C42   1.377       .  A
C41          H44   1.082       .  S
C42         C193   1.437       .  S
C42          C43   1.382       .  A
C43          H45   1.082       .  S
Cu46         N49   2.064       .  S
Cu47         N57   2.078       .  S
Cu48         N50   2.077       .  S
Cu48         N56   2.078       .  S
N49          N50   1.322       .  A
N49          C53   1.343       .  A
N50          C51   1.348       .  A
C51          C52   1.382       .  A
C51          H54   1.082       .  S
C52         C192   1.437       .  S
C52          C53   1.377       .  A
C53          H55   1.082       .  S
N56          N57   1.323       .  A
N56          C60   1.344       .  A
N57          C58   1.344       .  A
C58          C59   1.388       .  A
C58          H61   1.081       .  S
C59          C60   1.388       .  A
C59         C168   1.487       .  S
C60          H62   1.081       .  S
O63          C73   1.277       .  A
O63         Cu71   2.010       .  S
O64          C74   1.276       .  A
O64        Cu265   2.010   1_654  S
O65          C75   1.276       .  A
O65         Cu71   2.010   1_655  S
O66          C76   1.276       .  A
O66        Cu265   2.010   1_554  S
O67          C76   1.276       .  A
O67        Cu266   2.010   1_554  S
O68          C75   1.276       .  A
O68         Cu72   2.010   1_655  S
O69          C74   1.276       .  A
O69        Cu266   2.010   1_654  S
O70          C73   1.276       .  A
O70         Cu72   2.010       .  S
Cu71        O258   2.010   1_455  S
Cu71        O260   2.010       .  S
Cu71        Cu72   2.379       .  S
Cu72        O261   2.010       .  S
Cu72        O263   2.010   1_455  S
C73         C162   1.435       .  S
C74         C163   1.435       .  S
C75         C166   1.435       .  S
C76         C159   1.435       .  S
N77          N78   1.322       .  A
N77          C81   1.348       .  A
N77         Cu85   2.077       .  S
N78          C79   1.343       .  A
N78         Cu84   2.064       .  S
C79          C80   1.377       .  A
C79          H82   1.082       .  S
C80         C161   1.437       .  S
C80          C81   1.382       .  A
C81          H83   1.082       .  S
Cu84         N87   2.064       .  S
Cu85         N95   2.078       .  S
Cu86         N88   2.076       .  S
Cu86         N94   2.077       .  S
N87          N88   1.322       .  A
N87          C91   1.343       .  A
N88          C89   1.348       .  A
C89          C90   1.382       .  A
C89          H92   1.082       .  S
C90         C160   1.437       .  S
C90          C91   1.377       .  A
C91          H93   1.082       .  S
N94          N95   1.323       .  A
N94          C98   1.344       .  A
N95          C96   1.344       .  A
C96          C97   1.388       .  A
C96          H99   1.081       .  S
C97          C98   1.387       .  A
C97         C153   1.486       .  S
C98         H100   1.081       .  S
N101        N102   1.322       .  A
N101        C105   1.348       .  A
N101       Cu109   2.077       .  S
N102        C103   1.343       .  A
N102       Cu108   2.064       .  S
C103        C104   1.377       .  A
C103        H106   1.082       .  S
C104        C165   1.437       .  S
C104        C105   1.382       .  A
C105        H107   1.082       .  S
Cu108       N111   2.064       .  S
Cu109       N119   2.077       .  S
Cu110       N112   2.077       .  S
Cu110       N118   2.078       .  S
N111        N112   1.322       .  A
N111        C115   1.343       .  A
N112        C113   1.348       .  A
C113        C114   1.382       .  A
C113        H116   1.082       .  S
C114        C164   1.437       .  S
C114        C115   1.377       .  A
C115        H117   1.082       .  S
N118        N119   1.323       .  A
N118        C122   1.344       .  A
N119        C120   1.344       .  A
C120        C121   1.388       .  A
C120        H123   1.081       .  S
C121        C122   1.388       .  A
C121        C140   1.487       .  S
C122        H124   1.081       .  S
O125        C135   1.278       .  A
O125       Cu133   2.007       .  S
O126        C136   1.278       .  A
O126       Cu133   2.005       .  S
O127        C137   1.278       .  A
O127       Cu133   2.007       .  S
O128        C138   1.278       .  A
O128       Cu133   2.005       .  S
O129        C138   1.278       .  A
O129       Cu134   2.008       .  S
O130        C137   1.278       .  A
O130       Cu134   2.005       .  S
O131        C136   1.278       .  A
O131       Cu134   2.007       .  S
O132        C135   1.278       .  A
O132       Cu134   2.005       .  S
Cu133      Cu134   2.372       .  S
C135        C181   1.477       .  S
C136        C171   1.480       .  S
C137        C150   1.479       .  S
C138        C143   1.480       .  S
C139        C140   1.407       .  A
C139        C144   1.397       .  A
C139        H145   1.081       .  S
C140        C141   1.407       .  A
C141        C142   1.397       .  A
C141        H146   1.081       .  S
C142        C143   1.404       .  A
C142        H147   1.083       .  S
C143        C144   1.404       .  A
C144        H148   1.083       .  S
C149        C150   1.404       .  A
C149        C154   1.397       .  A
C149        H155   1.083       .  S
C150        C151   1.404       .  A
C151        C152   1.397       .  A
C151        H156   1.083       .  S
C152        C153   1.407       .  A
C152        H157   1.081       .  S
C153        C154   1.407       .  A
C154        H158   1.081       .  S
C159        C160   1.206       .  T
C161        C162   1.206       .  T
C163        C164   1.206       .  T
C165        C166   1.206       .  T
C167        C168   1.407       .  A
C167        C172   1.397       .  A
C167        H173   1.081       .  S
C168        C169   1.407       .  A
C169        C170   1.397       .  A
C169        H174   1.081       .  S
C170        C171   1.404       .  A
C170        H175   1.083       .  S
C171        C172   1.404       .  A
C172        H176   1.083       .  S
C177        C178   1.406       .  A
C177        C182   1.397       .  A
C177        H183   1.082       .  S
C178        C179   1.406       .  A
C179        C180   1.397       .  A
C179        H184   1.082       .  S
C180        C181   1.404       .  A
C180        H185   1.083       .  S
C181        C182   1.404       .  A
C182        H186   1.083       .  S
C187        C188   1.206       .  T
C189        C190   1.206       .  T
C191        C192   1.206       .  T
C193        C194   1.206       .  T
O195        C205   1.276       .  A
O196        C206   1.276       .  A
O196       Cu203   2.010   1_545  S
O197        C207   1.277       .  A
O198        C208   1.277       .  A
O198       Cu203   2.011       .  S
O199        C208   1.276       .  A
O200        C207   1.276       .  A
O200       Cu204   2.010   1_546  S
O201        C206   1.277       .  A
O202        C205   1.277       .  A
O202       Cu204   2.011   1_556  S
C205        C388   1.435       .  S
C206        C382   1.435       .  S
C207        C383   1.435       .  S
C208        C385   1.435       .  S
N209        N210   1.322       .  A
N209        C213   1.348       .  A
N209       Cu217   2.077       .  S
N210        C211   1.343       .  A
N210       Cu216   2.064       .  S
C211        C212   1.377       .  A
C211        H214   1.082       .  S
C212        C384   1.437       .  S
C212        C213   1.382       .  A
C213        H215   1.082       .  S
Cu216       N219   2.064       .  S
Cu217       N227   2.077       .  S
Cu218       N220   2.076       .  S
Cu218       N226   2.077       .  S
N219        N220   1.322       .  A
N219        C223   1.343       .  A
N220        C221   1.348       .  A
C221        C222   1.382       .  A
C221        H224   1.082       .  S
C222        C381   1.437       .  S
C222        C223   1.377       .  A
C223        H225   1.082       .  S
N226        N227   1.323       .  A
N226        C230   1.344       .  A
N227        C228   1.344       .  A
C228        C229   1.387       .  A
C228        H231   1.081       .  S
C229        C230   1.386       .  A
C229        C372   1.483       .  S
C230        H232   1.081       .  S
N233        N234   1.322       .  A
N233        C237   1.348       .  A
N233       Cu241   2.077       .  S
N234        C235   1.343       .  A
N234       Cu240   2.064       .  S
C235        C236   1.377       .  A
C235        H238   1.082       .  S
C236        C387   1.437       .  S
C236        C237   1.382       .  A
C237        H239   1.082       .  S
Cu240       N243   2.064       .  S
Cu241       N251   2.078       .  S
Cu242       N244   2.077       .  S
Cu242       N250   2.078       .  S
N243        N244   1.322       .  A
N243        C247   1.343       .  A
N244        C245   1.348       .  A
C245        C246   1.382       .  A
C245        H248   1.082       .  S
C246        C386   1.437       .  S
C246        C247   1.377       .  A
C247        H249   1.082       .  S
N250        N251   1.323       .  A
N250        C254   1.344       .  A
N251        C252   1.344       .  A
C252        C253   1.388       .  A
C252        H255   1.081       .  S
C253        C254   1.388       .  A
C253        C362   1.487       .  S
C254        H256   1.081       .  S
O257        C267   1.277       .  A
O257       Cu265   2.010       .  S
O258        C268   1.276       .  A
O259        C269   1.276       .  A
O259       Cu265   2.010   1_655  S
O260        C270   1.276       .  A
O261        C270   1.276       .  A
O262        C269   1.276       .  A
O262       Cu266   2.010   1_655  S
O263        C268   1.276       .  A
O264        C267   1.276       .  A
O264       Cu266   2.010       .  S
Cu265      Cu266   2.379       .  S
C267        C356   1.435       .  S
C268        C357   1.435       .  S
C269        C360   1.435       .  S
C270        C353   1.435       .  S
N271        N272   1.322       .  A
N271        C275   1.348       .  A
N271       Cu279   2.077       .  S
N272        C273   1.343       .  A
N272       Cu278   2.064       .  S
C273        C274   1.377       .  A
C273        H276   1.082       .  S
C274        C355   1.437       .  S
C274        C275   1.382       .  A
C275        H277   1.082       .  S
Cu278       N281   2.064       .  S
Cu279       N289   2.078       .  S
Cu280       N282   2.076       .  S
Cu280       N288   2.077       .  S
N281        N282   1.322       .  A
N281        C285   1.343       .  A
N282        C283   1.348       .  A
C283        C284   1.382       .  A
C283        H286   1.082       .  S
C284        C354   1.437       .  S
C284        C285   1.377       .  A
C285        H287   1.082       .  S
N288        N289   1.323       .  A
N288        C292   1.344       .  A
N289        C290   1.344       .  A
C290        C291   1.388       .  A
C290        H293   1.081       .  S
C291        C292   1.387       .  A
C291        C347   1.486       .  S
C292        H294   1.081       .  S
N295        N296   1.322       .  A
N295        C299   1.348       .  A
N295       Cu303   2.077       .  S
N296        C297   1.343       .  A
N296       Cu302   2.064       .  S
C297        C298   1.377       .  A
C297        H300   1.082       .  S
C298        C359   1.437       .  S
C298        C299   1.382       .  A
C299        H301   1.082       .  S
Cu302       N305   2.064       .  S
Cu303       N313   2.077       .  S
Cu304       N306   2.077       .  S
Cu304       N312   2.078       .  S
N305        N306   1.322       .  A
N305        C309   1.343       .  A
N306        C307   1.348       .  A
C307        C308   1.382       .  A
C307        H310   1.082       .  S
C308        C358   1.437       .  S
C308        C309   1.377       .  A
C309        H311   1.082       .  S
N312        N313   1.323       .  A
N312        C316   1.344       .  A
N313        C314   1.344       .  A
C314        C315   1.388       .  A
C314        H317   1.081       .  S
C315        C316   1.388       .  A
C315        C334   1.487       .  S
C316        H318   1.081       .  S
O319        C329   1.278       .  A
O319       Cu327   2.007       .  S
O320        C330   1.278       .  A
O320       Cu327   2.005       .  S
O321        C331   1.278       .  A
O321       Cu327   2.007       .  S
O322        C332   1.278       .  A
O322       Cu327   2.005       .  S
O323        C332   1.278       .  A
O323       Cu328   2.008       .  S
O324        C331   1.278       .  A
O324       Cu328   2.005       .  S
O325        C330   1.278       .  A
O325       Cu328   2.007       .  S
O326        C329   1.278       .  A
O326       Cu328   2.005       .  S
Cu327      Cu328   2.372       .  S
C329        C375   1.477       .  S
C330        C365   1.480       .  S
C331        C344   1.479       .  S
C332        C337   1.480       .  S
C333        C334   1.407       .  A
C333        C338   1.397       .  A
C333        H339   1.081       .  S
C334        C335   1.407       .  A
C335        C336   1.397       .  A
C335        H340   1.081       .  S
C336        C337   1.404       .  A
C336        H341   1.083       .  S
C337        C338   1.404       .  A
C338        H342   1.083       .  S
C343        C344   1.404       .  A
C343        C348   1.397       .  A
C343        H349   1.083       .  S
C344        C345   1.404       .  A
C345        C346   1.397       .  A
C345        H350   1.083       .  S
C346        C347   1.407       .  A
C346        H351   1.081       .  S
C347        C348   1.407       .  A
C348        H352   1.081       .  S
C353        C354   1.206       .  T
C355        C356   1.206       .  T
C357        C358   1.206       .  T
C359        C360   1.206       .  T
C361        C362   1.407       .  A
C361        C366   1.397       .  A
C361        H367   1.081       .  S
C362        C363   1.407       .  A
C363        C364   1.397       .  A
C363        H368   1.081       .  S
C364        C365   1.404       .  A
C364        H369   1.083       .  S
C365        C366   1.404       .  A
C366        H370   1.083       .  S
C371        C372   1.406       .  A
C371        C376   1.397       .  A
C371        H377   1.082       .  S
C372        C373   1.406       .  A
C373        C374   1.397       .  A
C373        H378   1.082       .  S
C374        C375   1.404       .  A
C374        H379   1.083       .  S
C375        C376   1.404       .  A
C376        H380   1.083       .  S
C381        C382   1.206       .  T
C383        C384   1.206       .  T
C385        C386   1.206       .  T
C387        C388   1.206       .  T
