geometry optimzed in LAMMPS
_audit_creation_date              2020-11-30 
_audit_creation_method            'lammps2cif' 
_symmetry_space_group_name_H-M    'P1' 
_symmetry_Int_Tables_number       1 
_symmetry_cell_setting            triclinic 
loop_ 
_symmetry_equiv_pos_as_xyz 
  x,y,z 
_cell_length_a                    38.24779266 
_cell_length_b                    38.264296947391934 
_cell_length_c                    38.84416719457929 
_cell_angle_alpha                 91.66635856763727 
_cell_angle_beta                  90.04658096067422 
_cell_angle_gamma                 89.89788815641131 
loop_ 
_atom_site_label 
_atom_site_type_symbol 
_atom_site_fract_x 
_atom_site_fract_y 
_atom_site_fract_z 
_atom_site_charge 
C1          C  0.42318961  0.55444676  0.43063272     0.43800
N2          N  0.46462922  0.54375547  0.46636635     0.02700
C3          C  0.56895501  0.39510525  0.46808902    -0.05100
H4          H  0.43662216  0.37122417  0.48136030     0.08200
C5          C  0.43740662  0.44529445  0.59432615    -0.05500
Co6        Co  0.50473796  0.47939956  0.44632686     0.74200
N7          N  0.46733356  0.41739589  0.47300182    -0.24700
Co8        Co  0.50444541  0.42056172  0.51258601     0.74100
C9          C  0.42229551  0.41175198  0.58335272     0.43900
N10         N  0.46266796  0.52843976  0.56829088     0.02300
N11         N  0.46516787  0.42383501  0.55002055     0.02400
N12         N  0.56688208  0.43405894  0.42553180    -0.45500
H13         H  0.43676035  0.50452959  0.39805107     0.08200
N14         N  0.46750280  0.44024295  0.44823237     0.02700
N15         N  0.54138186  0.42528834  0.55211433     0.02500
C16         C  0.58170187  0.41397807  0.58872258     0.44100
N17         N  0.46290536  0.55048697  0.54280679    -0.24100
C18         C  0.56741968  0.52436433  0.42266734    -0.05100
N19         N  0.43977465  0.56655284  0.45931786    -0.45200
N20         N  0.56541354  0.40182743  0.55991342    -0.45500
C21         C  0.58273417  0.55818301  0.43307575     0.43900
N22         N  0.54338767  0.44139533  0.44963927     0.02700
N23         N  0.53867755  0.55182142  0.54444360    -0.24200
N24         N  0.46591926  0.51743194  0.44380638    -0.24600
N25         N  0.53894669  0.52998071  0.57011529     0.02400
H26         H  0.56782246  0.59811814  0.53375092     0.08300
H27         H  0.56912081  0.46379284  0.62120772     0.08300
N28         N  0.54356551  0.41876653  0.47467006    -0.24700
N29         N  0.46382743  0.45053370  0.57232595    -0.24300
N30         N  0.54104145  0.54544542  0.46789092     0.02700
C31         C  0.42667332  0.40442416  0.43340873     0.44100
C32         C  0.43746488  0.57417433  0.54809810    -0.05600
N33         N  0.54023614  0.45183544  0.57460140    -0.24300
H34         H  0.43087751  0.46190652  0.61640507     0.08300
N35         N  0.44393730  0.43334197  0.42415430    -0.45500
H36         H  0.43283067  0.59664312  0.53246130     0.08300
C37         C  0.57964099  0.56693740  0.58240879     0.44000
C38         C  0.44080217  0.52171695  0.42022680    -0.05100
Co39       Co  0.50179618  0.54849761  0.50532840     0.73800
N40         N  0.43846406  0.53625973  0.59164056    -0.45200
C41         C  0.58459999  0.40565940  0.43559283     0.44200
N42         N  0.56469127  0.56959316  0.46122449    -0.45200
Co43       Co  0.50143099  0.49024976  0.57208063     0.73900
C44         C  0.56496273  0.44716051  0.59859319    -0.05600
C45         C  0.44230150  0.39360480  0.46598354    -0.05100
N46         N  0.54194872  0.51892915  0.44551367    -0.24700
N47         N  0.44138687  0.39967052  0.55626215    -0.45400
H48         H  0.57407369  0.37208113  0.48279976     0.08200
C49         C  0.56336224  0.57601072  0.54986658    -0.05500
Cl50       Cl  0.50318575  0.48464677  0.50913036    -0.48500
C51         C  0.42116237  0.56463110  0.58053531     0.44000
H52         H  0.57276189  0.50734540  0.40064140     0.08200
N53         N  0.56286002  0.53832660  0.59370497    -0.45300
C54         C  0.07346329  0.43489822  0.90868356     0.43800
N55         N  0.06142693  0.47286171  0.94895251     0.02700
C56         C  0.91292867  0.47751307  0.05133067    -0.05100
H57         H  0.88669964  0.49086650  0.92365500     0.08200
C58         C  0.96017166  0.60432412  0.92526262    -0.05500
Co59       Co  0.99707177  0.45359562  0.98750952     0.74200
N60         N  0.93425116  0.48145597  0.95165871    -0.24700
Co61       Co  0.93737374  0.52163124  0.98887592     0.74100
C62         C  0.92673928  0.59339707  0.91000456     0.43900
N63         N  0.04450357  0.57689780  0.94964049     0.02300
N64         N  0.94000143  0.55930918  0.95110484     0.02400
N65         N  0.95278811  0.43384652  0.04853415    -0.45500
H66         H  0.02328366  0.40367722  0.92006655     0.08200
N67         N  0.95717138  0.45565247  0.95078531     0.02700
N68         N  0.94156647  0.56147853  0.02622084     0.02500
C69         C  0.93016841  0.59739487  0.06823832     0.44100
N70         N  0.06700272  0.55072891  0.94975569    -0.24100
C71         C  0.04316679  0.42952879  0.04916448    -0.05100
N72         N  0.08504171  0.46429292  0.92520629    -0.45200
N73         N  0.91881276  0.56836811  0.05113311    -0.45500
C74         C  0.07675678  0.44031980  0.06407677     0.43900
N75         N  0.95933667  0.45781455  0.02564021     0.02700
N76         N  0.06768475  0.55282717  0.02427212    -0.24200
N77         N  0.03522832  0.45052964  0.94945494    -0.24600
N78         N  0.04531195  0.57913375  0.02480171     0.02400
H79         H  0.11393246  0.54194315  0.05347494     0.08300
H80         H  0.97924782  0.63029149  0.05676895     0.08300
N81         N  0.93628124  0.48351815  0.02637410    -0.24700
N82         N  0.96609589  0.58184087  0.95049879    -0.24300
N83         N  0.06272658  0.47516986  0.02402290     0.02700
C84         C  0.91940395  0.44113956  0.91188752     0.44100
C85         C  0.09147314  0.55579259  0.92584187    -0.05600
N86         N  0.96728679  0.58438120  0.02559738    -0.24300
H87         H  0.97628637  0.62667398  0.91980773     0.08300
N88         N  0.94914258  0.43091734  0.92756642    -0.45500
H89         H  0.11399894  0.53923817  0.92120051     0.08300
C90         C  0.08158341  0.59184445  0.06565945     0.44000
C91         C  0.04021231  0.42588231  0.92478150    -0.05100
Co92       Co  0.06525678  0.51281321  0.98668739     0.73800
N93         N  0.05265727  0.60051909  0.92670691    -0.45200
C94         C  0.92409151  0.44444453  0.06601913     0.44200
N95         N  0.08734551  0.46853565  0.04687746    -0.45200
Co96       Co  0.00581202  0.58135067  0.98756324     0.73900
C97         C  0.96243296  0.60815922  0.05124295    -0.05600
C98         C  0.90942364  0.47475623  0.92796246    -0.05100
N99         N  0.03681173  0.45250791  0.02443114    -0.24700
N100        N  0.91578988  0.56553847  0.92764770    -0.45400
H101        H  0.88974841  0.49297272  0.05669307     0.08200
C102        C  0.09150743  0.55844050  0.04908367    -0.05500
Cl103      Cl  0.00137024  0.51736916  0.98758383    -0.48500
C104        C  0.08195336  0.58886167  0.91059899     0.44000
H105        H  0.02742157  0.40684399  0.05439393     0.08200
N106        N  0.05287681  0.60323972  0.04890684    -0.45300
C107        C  0.73132497  0.21769441  0.78489287     0.87900
C108        C  0.70813366  0.24237247  0.76397299    -0.52400
C109        C  0.72605951  0.26256605  0.74158521     0.10800
C110        C  0.76587073  0.25696733  0.74253048     0.21700
C111        C  0.75313907  0.19720414  0.75794583    -0.53100
C112        C  0.77124360  0.21744675  0.73573488     0.10900
C113        C  0.75757190  0.24292543  0.80269843    -0.52600
C114        C  0.77571115  0.26323938  0.78057215     0.11500
H115        H  0.67986751  0.24353054  0.76642420     0.16000
H116        H  0.78034846  0.27379263  0.72462790     0.01700
H117        H  0.75470481  0.16884870  0.75719828     0.16300
H118        H  0.76022690  0.24726991  0.83015644     0.16100
C119        C  0.43311368  0.06299470  0.92939298     0.43800
N120        N  0.44641566  0.02802125  0.96951830     0.02700
C121        C  0.59611870  0.02503877  0.06942019    -0.05100
H122        H  0.61762590  0.00424813  0.93899027     0.08200
C123        C  0.54527153  0.89222993  0.94405805    -0.05500
Co124      Co  0.51156041  0.04892587  0.00695902     0.74200
N125        N  0.57228217  0.01733615  0.96912336    -0.24700
Co126      Co  0.57003179  0.97940063  0.00620319     0.74100
C127        C  0.57878272  0.90127972  0.92816513     0.43900
N128        N  0.46169760  0.92415956  0.96907566     0.02300
N129        N  0.56613003  0.93931974  0.96842134     0.02400
N130        N  0.55749544  0.06971370  0.06864662    -0.45500
H131        H  0.48248251  0.09630925  0.93985400     0.08200
N132        N  0.55018939  0.04381631  0.96930680     0.02700
N133        N  0.56673114  0.94156349  0.04321593     0.02500
C134        C  0.58218366  0.90419621  0.08056267     0.44100
N135        N  0.43949659  0.95062895  0.96977802    -0.24100
C136        C  0.46692406  0.07708931  0.06958383    -0.05100
N137        N  0.42222329  0.03475911  0.94633291    -0.45200
N138        N  0.59199947  0.93355140  0.06482569    -0.45500
C139        C  0.43344473  0.06748813  0.08496754     0.43900
N140        N  0.55038504  0.04575334  0.04439994     0.02700
N141        N  0.44014201  0.95310068  0.04411827    -0.24200
N142        N  0.47246665  0.05055987  0.96949151    -0.24600
N143        N  0.46221833  0.92657306  0.04451562     0.02400
H144        H  0.39426107  0.96661890  0.07370045     0.08300
H145        H  0.53236604  0.87127933  0.06983435     0.08300
N146        N  0.57270422  0.01942820  0.04408893    -0.24700
N147        N  0.53983751  0.91704191  0.96865219    -0.24300
N148        N  0.44638337  0.03036040  0.04443094     0.02700
C149        C  0.58621736  0.05467851  0.92847835     0.44100
C150        C  0.41470348  0.94467001  0.94600047    -0.05600
N151        N  0.54071157  0.91898348  0.04323263    -0.24300
H152        H  0.52839259  0.87002110  0.93925889     0.08300
N153        N  0.55775393  0.06681834  0.94568101    -0.45500
H154        H  0.39201536  0.96094491  0.94180047     0.08300
C155        C  0.42560292  0.91677485  0.08502636     0.44000
C156        C  0.46655520  0.07366573  0.94476933    -0.05100
Co157      Co  0.44265237  0.99061848  0.00693488     0.73800
N158        N  0.45320809  0.89968951  0.94568121    -0.45200
C159        C  0.58596621  0.05861020  0.08585582     0.44200
N160        N  0.42224912  0.03851304  0.06770378    -0.45200
Co161      Co  0.50093811  0.92101340  0.00642232     0.73900
C162        C  0.54791503  0.89442095  0.06617946    -0.05600
C163        C  0.59586220  0.02164026  0.94415349    -0.05100
N164        N  0.47260375  0.05269800  0.04462203    -0.24700
N165        N  0.58994812  0.93074571  0.94487842    -0.45400
H166        H  0.61789940  0.00801574  0.07469693     0.08200
C167        C  0.41617081  0.94931485  0.06878180    -0.05500
Cl168      Cl  0.50632853  0.98495440  0.00664051    -0.48500
C169        C  0.42405702  0.91113081  0.92984396     0.44000
H170        H  0.48303875  0.09984984  0.07470941     0.08200
N171        N  0.45430208  0.90401186  0.06856431    -0.45300
C172        C  0.22799279  0.78321674  0.70973910     0.87900
C173        C  0.20465827  0.76122570  0.73262087    -0.52400
C174        C  0.22234208  0.74031850  0.75442402     0.10800
C175        C  0.26229551  0.74312534  0.75177820     0.21700
C176        C  0.25254235  0.80317901  0.73500557    -0.53100
C177        C  0.26965277  0.78254919  0.75792235     0.10900
C178        C  0.25266271  0.75685873  0.69161388    -0.52600
C179        C  0.27022486  0.73563642  0.71332848     0.11500
H180        H  0.17627113  0.76194268  0.73143929     0.16000
H181        H  0.27611072  0.72560329  0.76954360     0.01700
H182        H  0.25766202  0.83091171  0.73436359     0.16300
H183        H  0.25557782  0.75456484  0.66382393     0.16100
C184        C  0.93071458  0.09970116  0.41603442     0.43800
N185        N  0.96555805  0.05693802  0.42656015     0.02700
C186        C  0.96764218  0.95015998  0.56742476    -0.05100
H187        H  0.98501712  0.07769275  0.59966826     0.08200
C188        C  0.10037174  0.07408507  0.52963833    -0.05500
Co189      Co  0.94409483  0.01724283  0.48830122     0.74200
N190        N  0.97423040  0.05190165  0.55119761    -0.24700
Co191      Co  0.01254179  0.01328444  0.54624320     0.74100
C192        C  0.08984006  0.08845677  0.56361832     0.43900
N193        N  0.06944966  0.05398446  0.44354095     0.02300
N194        N  0.05215015  0.05033938  0.54590975     0.02400
N195        N  0.92284094  0.95337070  0.52972928    -0.45500
H196        H  0.89723574  0.08773119  0.46396134     0.08200
N197        N  0.94814713  0.05367010  0.52912455     0.02700
N198        N  0.05030928  0.97441604  0.54035344     0.02500
C199        C  0.08435679  0.93108659  0.55052456     0.44100
N200        N  0.04336845  0.05493655  0.42128968    -0.24100
C201        C  0.91703902  0.95594703  0.44201053    -0.05100
N202        N  0.95907392  0.08181783  0.40445310    -0.45200
N203        N  0.05614029  0.94910835  0.56206387    -0.45500
C204        C  0.92625419  0.94026531  0.40860826     0.43900
N205        N  0.94678932  0.97745997  0.52396269     0.02700
N206        N  0.04164175  0.97894383  0.41639082    -0.24200
N207        N  0.94284199  0.05674343  0.45209418    -0.24600
N208        N  0.06805868  0.97783332  0.43828778     0.02400
H209        H  0.02995183  0.94983174  0.36927148     0.08300
H210        H  0.11813391  0.94293946  0.50267265     0.08300
N211        N  0.97306604  0.97620537  0.54583273    -0.24700
N212        N  0.07544127  0.05067260  0.52087858    -0.24300
N213        N  0.96331843  0.98057444  0.42187197     0.02700
C214        C  0.93498665  0.09161608  0.56919135     0.44100
C215        C  0.04940543  0.08050491  0.39923545    -0.05600
N216        N  0.07326711  0.97471040  0.51507468    -0.24300
H217        H  0.12359854  0.07906425  0.51476355     0.08300
N218        N  0.92403899  0.07670248  0.53906115    -0.45500
H219        H  0.03332566  0.08599311  0.37713716     0.08300
C220        C  0.07924259  0.93725584  0.40061521     0.44000
C221        C  0.91979792  0.08280467  0.44779700    -0.05100
Co222      Co  0.00339758  0.01781551  0.42084708     0.73800
N223        N  0.09384211  0.07754169  0.43744058    -0.45200
C224        C  0.93419771  0.93476833  0.55669482     0.44200
N225        N  0.95498787  0.95712462  0.39738706    -0.45200
Co226      Co  0.07228023  0.01437956  0.47930257     0.73900
C227        C  0.09587339  0.94825274  0.51911341    -0.05600
C228        C  0.96855702  0.07501073  0.57718105    -0.05100
N229        N  0.94118409  0.98063668  0.44790951    -0.24700
N230        N  0.05985049  0.07219657  0.57180272    -0.45400
H231        H  0.98441274  0.94444360  0.58893325     0.08200
C232        C  0.04643090  0.95418244  0.39162908    -0.05500
Cl233      Cl  0.00810015  0.01577302  0.48364898    -0.48500
C234        C  0.08292783  0.09564408  0.41002815     0.44000
H235        H  0.89473964  0.95107702  0.45826788     0.08200
N236        N  0.09150007  0.95366876  0.42939019    -0.45300
C237        C  0.72743652  0.71882468  0.28586539     0.87900
C238        C  0.70650027  0.74162705  0.26100956    -0.52400
C239        C  0.72671175  0.76137115  0.24009477     0.10800
C240        C  0.76615282  0.75719931  0.24613514     0.21700
C241        C  0.75296459  0.69783594  0.26298064    -0.53100
C242        C  0.77314653  0.71767134  0.24238719     0.10900
C243        C  0.75017496  0.74607989  0.30547899    -0.52600
C244        C  0.77043210  0.76618953  0.28479326     0.11500
H245        H  0.67829270  0.74413344  0.26106023     0.16000
H246        H  0.78235996  0.77338797  0.22907198     0.01700
H247        H  0.75467875  0.66948344  0.26281235     0.16300
H248        H  0.74954305  0.74995490  0.33326282     0.16100
C249        C  0.23289849  0.28520845  0.20644226     0.87900
C250        C  0.20977070  0.26393051  0.23042127    -0.52400
C251        C  0.22758811  0.24376818  0.25306185     0.10800
C252        C  0.26759813  0.24584250  0.24892545     0.21700
C253        C  0.25791333  0.30549602  0.23081659    -0.53100
C254        C  0.27569242  0.28507381  0.25321760     0.10900
C255        C  0.25710879  0.25799610  0.18852115    -0.52600
C256        C  0.27475558  0.23726093  0.21061139     0.11500
H257        H  0.18141128  0.26531765  0.22982498     0.16000
H258        H  0.28252994  0.22952184  0.26699563     0.01700
H259        H  0.26082241  0.33373137  0.23091178     0.16300
H260        H  0.26238009  0.25591188  0.16124260     0.16100
C261        C  0.77881058  0.28213801  0.20951853     0.87900
C262        C  0.75448278  0.30273743  0.23411388    -0.52400
C263        C  0.73595191  0.28281185  0.25631594     0.10800
C264        C  0.74357212  0.24329135  0.25171881     0.21700
C265        C  0.80176470  0.26011663  0.23300665    -0.53100
C266        C  0.78365837  0.24028950  0.25536674     0.10900
C267        C  0.75523605  0.25459158  0.19146685    -0.52600
C268        C  0.73603073  0.23472487  0.21327287     0.11500
H269        H  0.75334240  0.33110213  0.23468077     0.16000
H270        H  0.72869784  0.22698245  0.26966408     0.01700
H271        H  0.83016313  0.26075233  0.23268296     0.16300
H272        H  0.75517130  0.24885135  0.16410791     0.16100
C273        C  0.28206885  0.71705849  0.28300000     0.87900
C274        C  0.25810514  0.69747448  0.25749454    -0.52400
C275        C  0.23941593  0.71840830  0.23630988     0.10800
C276        C  0.24695138  0.75771323  0.24217193     0.21700
C277        C  0.30514078  0.74035039  0.26076505    -0.53100
C278        C  0.28698171  0.76119724  0.23911042     0.10900
C279        C  0.25820248  0.74380815  0.30193603    -0.52600
C280        C  0.23953137  0.76481142  0.28072029     0.11500
H281        H  0.25590792  0.66916086  0.25657083     0.16000
H282        H  0.23213883  0.77496199  0.22485561     0.01700
H283        H  0.33336284  0.74196759  0.26297015     0.16300
H284        H  0.25650275  0.74651352  0.32974950     0.16100
C285        C  0.27776720  0.21980378  0.78809999     0.87900
C286        C  0.25175764  0.20012983  0.76430311    -0.52400
C287        C  0.23360310  0.22081691  0.74228252     0.10800
C288        C  0.24312902  0.25990675  0.74622888     0.21700
C289        C  0.30099830  0.24048230  0.76351558    -0.53100
C290        C  0.28298585  0.26126775  0.74172221     0.10900
C291        C  0.25499870  0.24816880  0.80627849    -0.52600
C292        C  0.23722542  0.26916521  0.78451814     0.11500
H293        H  0.24875534  0.17191617  0.76434944     0.16000
H294        H  0.22871931  0.27723717  0.72869384     0.01700
H295        H  0.32936482  0.23895523  0.76349796     0.16300
H296        H  0.25140548  0.25194557  0.83357118     0.16100
C297        C  0.78001410  0.78615796  0.70629110     0.87900
C298        C  0.75874325  0.75848623  0.68595512    -0.52400
C299        C  0.74072295  0.73593125  0.70586038     0.10800
C300        C  0.74503787  0.74313105  0.74479006     0.21700
C301        C  0.75277215  0.80411328  0.73042734    -0.53100
C302        C  0.73445088  0.78170683  0.75040595     0.10900
C303        C  0.80284041  0.76514909  0.73094057    -0.52600
C304        C  0.78479731  0.74255706  0.75089909     0.11500
H305        H  0.75800945  0.75689584  0.65798939     0.16000
H306        H  0.73026378  0.72479347  0.76095258     0.01700
H307        H  0.74817386  0.83178524  0.73335507     0.16300
H308        H  0.83111608  0.76757610  0.73207030     0.16100
C309        C  0.10968552  0.14909656  0.64038750     0.14100
C310        C  0.14619475  0.15241977  0.63858922     0.01000
C311        C  0.16420400  0.13526483  0.61140341     0.16000
C312        C  0.14608513  0.11508240  0.58650790     0.25400
C313        C  0.10947136  0.11152457  0.58837568    -0.40900
C314        C  0.09154454  0.12879655  0.61568978     0.32400
C315        C  0.16577424  0.17244698  0.66576985     0.01100
F316        F  0.19962223  0.13691990  0.60975548    -0.13200
F317        F  0.05628301  0.12605990  0.61860453    -0.13800
C318        C  0.16434454  0.16237112  0.70025408     0.16000
C319        C  0.18517885  0.17913581  0.72536062     0.25400
C320        C  0.20821475  0.20614787  0.71647538    -0.40900
C321        C  0.20815130  0.21749936  0.68229651     0.32400
C322        C  0.18713229  0.20078338  0.65722520     0.14100
F323        F  0.14368954  0.13536748  0.70943760    -0.13200
F324        F  0.22962749  0.24363008  0.67261606    -0.13800
F325        F  0.18284012  0.16882963  0.75843391    -0.16000
F326        F  0.18792718  0.21199911  0.62439628    -0.14600
F327        F  0.09151705  0.16562145  0.66610709    -0.14600
F328        F  0.16472064  0.09777606  0.56166692    -0.16000
C329        C  0.16228181  0.22014866  0.32239063     0.14100
C330        C  0.17014486  0.18471876  0.32744301     0.01000
C331        C  0.19898930  0.16973767  0.30997320     0.16000
C332        C  0.21902088  0.18952313  0.28756559     0.25400
C333        C  0.20939513  0.22402699  0.28033688    -0.40900
C334        C  0.18130404  0.23940745  0.29875010     0.32400
C335        C  0.14773978  0.16325471  0.35002167     0.01100
F336        F  0.20705509  0.13544854  0.31344321    -0.13200
F337        F  0.17261778  0.27342521  0.29441896    -0.13800
C338        C  0.11117689  0.16300110  0.34575913     0.16000
C339        C  0.09003061  0.14229044  0.36626473     0.25400
C340        C  0.10499668  0.12024752  0.39068460    -0.40900
C341        C  0.14155462  0.12078026  0.39524315     0.32400
C342        C  0.16261323  0.14230473  0.37540931     0.14100
F343        F  0.09584154  0.18199709  0.32089004    -0.13200
F344        F  0.15722475  0.09974465  0.41822520    -0.13800
F345        F  0.05485028  0.14404196  0.36211327    -0.16000
F346        F  0.19764225  0.14261388  0.38110466    -0.14600
F347        F  0.13617169  0.23625177  0.34046775    -0.14600
F348        F  0.24720850  0.17434205  0.27232760    -0.16000
C349        C  0.90434996  0.86963916  0.62291360     0.14100
C350        C  0.86912930  0.86520151  0.61392564     0.01000
C351        C  0.85589215  0.88178681  0.58495046     0.16000
C352        C  0.87737734  0.90336740  0.56567022     0.25400
C353        C  0.91256963  0.90904837  0.57525716    -0.40900
C354        C  0.92596501  0.89119958  0.60377448     0.32400
C355        C  0.84567886  0.84534129  0.63632510     0.01100
F356        F  0.82187858  0.87756838  0.57572746    -0.13200
F357        F  0.95976603  0.89472285  0.61376750    -0.13800
C358        C  0.82099523  0.86315227  0.65678502     0.16000
C359        C  0.79957491  0.84515803  0.67939938     0.25400
C360        C  0.80233211  0.80830330  0.68209972    -0.40900
C361        C  0.82724200  0.79071569  0.66074795     0.32400
C362        C  0.84865286  0.80902886  0.63834183     0.14100
F363        F  0.81808825  0.89846739  0.65533923    -0.13200
F364        F  0.83096971  0.75543560  0.66159817    -0.13800
F365        F  0.77664339  0.86475315  0.69804289    -0.16000
F366        F  0.87223641  0.79125085  0.61841019    -0.14600
F367        F  0.91746694  0.85413679  0.65117433    -0.14600
F368        F  0.86325358  0.91945974  0.53823249    -0.16000
C369        C  0.11320216  0.85345661  0.35865735     0.14100
C370        C  0.14229782  0.86560226  0.34040655     0.01000
C371        C  0.14928062  0.90167508  0.34060853     0.16000
C372        C  0.12829513  0.92509288  0.35975434     0.25400
C373        C  0.09990706  0.91281174  0.37880506    -0.40900
C374        C  0.09212372  0.87696417  0.37772561     0.32400
C375        C  0.16719287  0.84060338  0.32378915     0.01100
F376        F  0.17678050  0.91408864  0.32259017    -0.13200
F377        F  0.06494060  0.86462889  0.39622618    -0.13800
C378        C  0.15699821  0.81858574  0.29595473     0.16000
C379        C  0.18081690  0.79458976  0.28114916     0.25400
C380        C  0.21500328  0.79201233  0.29429236    -0.40900
C381        C  0.22519283  0.81445883  0.32181417     0.32400
C382        C  0.20152055  0.83843326  0.33641019     0.14100
F383        F  0.12399710  0.82029939  0.28321327    -0.13200
F384        F  0.25824401  0.81334234  0.33452621    -0.13800
F385        F  0.17004987  0.77298328  0.25490979    -0.16000
F386        F  0.21187043  0.85903620  0.36357750    -0.14600
F387        F  0.10618762  0.81871092  0.35926653    -0.14600
F388        F  0.13584542  0.95975582  0.35996407    -0.16000
C389        C  0.84825571  0.82517266  0.30350485     0.14100
C390        C  0.83521839  0.84707166  0.33022240     0.01000
C391        C  0.79978406  0.84451824  0.33944851     0.16000
C392        C  0.77842939  0.81900465  0.32384245     0.25400
C393        C  0.79207488  0.79561399  0.29860622    -0.47700
C394        C  0.82674866  0.79994951  0.28756139     0.32400
C395        C  0.85898879  0.87090217  0.34991572     0.01100
F396        F  0.78593762  0.86656650  0.36386507    -0.13200
F397        F  0.84043227  0.77880188  0.26242137    -0.13800
C398        C  0.87934162  0.89584837  0.33318121     0.16000
C399        C  0.90226537  0.91760774  0.35204606     0.25400
C400        C  0.90466145  0.91527131  0.38805773    -0.40900
C401        C  0.88448584  0.89009328  0.40468569     0.32400
C402        C  0.86207615  0.86801953  0.38578781     0.14100
F403        F  0.87630159  0.89979772  0.29868595    -0.13200
F404        F  0.88690397  0.88630191  0.43925186    -0.13800
F405        F  0.92104984  0.94185892  0.33522711    -0.16000
F406        F  0.84376575  0.84331987  0.40252067    -0.14600
F407        F  0.88233939  0.82698858  0.29400533    -0.14600
F408        F  0.74428946  0.81734305  0.33323437    -0.16000
C409        C  0.86108174  0.16423829  0.38712171     0.14100
C410        C  0.86983127  0.16776890  0.35231503     0.01000
C411        C  0.90052182  0.15196626  0.33961882     0.16000
C412        C  0.92107291  0.13121284  0.36078146     0.25400
C413        C  0.91117750  0.12551906  0.39520564    -0.40900
C414        C  0.88155859  0.14341746  0.40844131     0.32400
C415        C  0.84607251  0.18625411  0.32870879     0.01100
F416        F  0.91032539  0.15624080  0.30641098    -0.13200
F417        F  0.87199739  0.14069409  0.44185593    -0.13800
C418        C  0.84055115  0.22247917  0.33244224     0.16000
C419        C  0.81873527  0.23970490  0.30940084     0.25400
C420        C  0.80218307  0.22099914  0.28231039    -0.40900
C421        C  0.80768213  0.18484672  0.27856198     0.32400
C422        C  0.82924719  0.16754985  0.30175126     0.14100
F423        F  0.85738880  0.24132782  0.35751074    -0.13200
F424        F  0.79378902  0.16662483  0.25140363    -0.13800
F425        F  0.81461942  0.27490335  0.31275003    -0.16000
F426        F  0.83420385  0.13253646  0.29761997    -0.14600
F427        F  0.83187332  0.17989831  0.40013214    -0.14600
F428        F  0.95012516  0.11591454  0.34702955    -0.16000
C429        C  0.15366020  0.86841696  0.58312389     0.14100
C430        C  0.13937239  0.85941537  0.61485881     0.01000
C431        C  0.10595316  0.87143709  0.62400584     0.16000
C432        C  0.08751165  0.89336560  0.60225215     0.25400
C433        C  0.10249179  0.90424382  0.57107722    -0.40900
C434        C  0.13553500  0.89072756  0.56141363     0.32400
C435        C  0.16066299  0.83994707  0.63954689     0.01100
F436        F  0.09150542  0.86253377  0.65444230    -0.13200
F437        F  0.15111164  0.89977125  0.53165443    -0.13800
C438        C  0.17565759  0.85765147  0.66790716     0.16000
C439        C  0.19736836  0.84008138  0.69066463     0.25400
C440        C  0.20537083  0.80417889  0.68498037    -0.40900
C441        C  0.18791875  0.78619756  0.65753559     0.32400
C442        C  0.16635300  0.80402774  0.63482111     0.14100
F443        F  0.16891557  0.89217270  0.67377603    -0.13200
F444        F  0.19092165  0.75098054  0.65312537    -0.13800
F445        F  0.20816508  0.85819549  0.71917004    -0.16000
F446        F  0.15036825  0.78607084  0.60859019    -0.14600
F447        F  0.18597200  0.85678116  0.57388630    -0.14600
F448        F  0.05531914  0.90461586  0.61234349    -0.16000
C449        C  0.60881229  0.13456616  0.14686945     0.14100
C450        C  0.64413127  0.12799530  0.15422166     0.01000
C451        C  0.65933788  0.09659697  0.14199041     0.16000
C452        C  0.64024184  0.07319233  0.12090634     0.25400
C453        C  0.60537084  0.08071902  0.11168652    -0.40900
C454        C  0.58964102  0.11128358  0.12583793     0.32400
C455        C  0.66599282  0.15559710  0.17110178     0.01100
F456        F  0.69343045  0.08954846  0.14871963    -0.13200
F457        F  0.55586257  0.11929324  0.11864928    -0.13800
C458        C  0.68456190  0.14954045  0.20159826     0.16000
C459        C  0.70660264  0.17539185  0.21599349     0.25400
C460        C  0.71062558  0.20778130  0.20001540    -0.40900
C461        C  0.69086402  0.21402028  0.17007668     0.32400
C462        C  0.66927065  0.18811761  0.15563149     0.14100
F463        F  0.68147716  0.11849595  0.21736755    -0.13200
F464        F  0.69207476  0.24542306  0.15471662    -0.13800
F465        F  0.72469628  0.16807456  0.24490518    -0.16000
F466        F  0.65226762  0.19448043  0.12573735    -0.14600
F467        F  0.59312645  0.16417865  0.15934250    -0.14600
F468        F  0.65678834  0.04424347  0.10821898    -0.16000
C469        C  0.31508351  0.15025062  0.18403535     0.14100
C470        C  0.34602581  0.16076348  0.16767744     0.01000
C471        C  0.35400954  0.19668959  0.16714013     0.16000
C472        C  0.33143618  0.22143618  0.18240966     0.25400
C473        C  0.30024084  0.21082073  0.19793645    -0.40900
C474        C  0.29196427  0.17514858  0.19809632     0.32400
C475        C  0.36838174  0.13475674  0.14874934     0.01100
F476        F  0.38275169  0.20801275  0.15030515    -0.13200
F477        F  0.26036420  0.16452126  0.20947034    -0.13800
C478        C  0.35345644  0.11149372  0.12416452     0.16000
C479        C  0.37451626  0.08864451  0.10455780     0.25400
C480        C  0.41113686  0.08925801  0.10827936    -0.40900
C481        C  0.42605564  0.11184408  0.13341819     0.32400
C482        C  0.40484765  0.13410144  0.15372483     0.14100
F483        F  0.31852980  0.11197003  0.11785275    -0.13200
F484        F  0.46114713  0.11213127  0.13864139    -0.13800
F485        F  0.35901504  0.06714241  0.08069848    -0.16000
F486        F  0.41996490  0.15505137  0.17828565    -0.14600
F487        F  0.30676418  0.11585626  0.18567843    -0.14600
F488        F  0.33930036  0.25594552  0.18082635    -0.16000
C489        C  0.40185146  0.85487244  0.15541957     0.14100
C490        C  0.36504270  0.85568217  0.15452267     0.01000
C491        C  0.34828299  0.87823964  0.13179007     0.16000
C492        C  0.36788489  0.89909779  0.10999710     0.25400
C493        C  0.40468989  0.89717883  0.10996794    -0.40900
C494        C  0.42143960  0.87510308  0.13306609     0.32400
C495        C  0.34425461  0.83169151  0.17588307     0.01100
F496        F  0.31285937  0.87886416  0.12946411    -0.13200
F497        F  0.45688211  0.87328411  0.13414038    -0.13800
C498        C  0.31733395  0.84444797  0.19761378     0.16000
C499        C  0.29777034  0.82143867  0.21739383     0.25400
C500        C  0.30516765  0.78544712  0.21610011    -0.40900
C501        C  0.33191891  0.77273872  0.19432327     0.32400
C502        C  0.35104914  0.79554403  0.17421680     0.14100
F503        F  0.31071607  0.87928594  0.20049185    -0.13200
F504        F  0.33935566  0.73802397  0.19232603    -0.13800
F505        F  0.27274020  0.83450044  0.23895812    -0.16000
F506        F  0.37597890  0.78217767  0.15269816    -0.14600
F507        F  0.41890335  0.83435359  0.17792353    -0.14600
F508        F  0.35063561  0.91965820  0.08768449    -0.16000
C509        C  0.61097368  0.82846131  0.86605218     0.14100
C510        C  0.64092431  0.84376496  0.85216280     0.01000
C511        C  0.65041926  0.87761162  0.86333012     0.16000
C512        C  0.63026396  0.89607115  0.88788194     0.25400
C513        C  0.59978704  0.88117589  0.90174885    -0.40900
C514        C  0.59048657  0.84693906  0.89048334     0.32400
C515        C  0.66227832  0.82494154  0.82562833     0.01100
F516        F  0.67957279  0.89272652  0.85056257    -0.13200
F517        F  0.56194327  0.83085173  0.90323250    -0.13800
C518        C  0.66016872  0.83444282  0.79105123     0.16000
C519        C  0.68267427  0.81933799  0.76637699     0.25400
C520        C  0.70787152  0.79447955  0.77585060    -0.40900
C521        C  0.70911578  0.78404773  0.81027760     0.32400
C522        C  0.68652674  0.79924358  0.83498547     0.14100
F523        F  0.63668631  0.85892228  0.78133757    -0.13200
F524        F  0.73356555  0.76074099  0.82044666    -0.13800
F525        F  0.68006074  0.82926859  0.73319046    -0.16000
F526        F  0.68937605  0.79006234  0.86836232    -0.14600
F527        F  0.60143862  0.79562624  0.85575791    -0.14600
F528        F  0.64072094  0.92868755  0.89791482    -0.16000
C529        C  0.35182776  0.10251492  0.89076106     0.14100
C530        C  0.36603759  0.12491272  0.86646572     0.01000
C531        C  0.40248478  0.12601554  0.86200137     0.16000
C532        C  0.42446596  0.10556613  0.88211737     0.25400
C533        C  0.41025443  0.08347250  0.90678995    -0.40900
C534        C  0.37365991  0.08181659  0.91056701     0.32400
C535        C  0.34289195  0.14830474  0.84701961     0.01100
F536        F  0.41681170  0.14771454  0.83886506    -0.13200
F537        F  0.35889086  0.06111570  0.93434028    -0.13800
C538        C  0.32240018  0.17327550  0.86466246     0.16000
C539        C  0.30097270  0.19617312  0.84680010     0.25400
C540        C  0.29952688  0.19481117  0.81017186    -0.40900
C541        C  0.32015020  0.16899577  0.79284435     0.32400
C542        C  0.34143900  0.14613360  0.81101539     0.14100
F543        F  0.32375221  0.17611625  0.89959339    -0.13200
F544        F  0.31995054  0.16601387  0.75791952    -0.13800
F545        F  0.28257156  0.21935879  0.86641841    -0.16000
F546        F  0.36049060  0.12157207  0.79339763    -0.14600
F547        F  0.31669903  0.10090208  0.89551426    -0.14600
F548        F  0.45955749  0.10720515  0.87725201    -0.16000
C549        C  0.61594046  0.83631918  0.14211498     0.14100
C550        C  0.65112978  0.84610138  0.14565825     0.01000
C551        C  0.66383546  0.87434593  0.12731681     0.16000
C552        C  0.64144170  0.89311150  0.10615326     0.25400
C553        C  0.60580858  0.88377317  0.10281678    -0.40900
C554        C  0.59346454  0.85484882  0.12085013     0.32400
C555        C  0.67389141  0.82765433  0.16988605     0.01100
F556        F  0.69776202  0.88430177  0.13060906    -0.13200
F557        F  0.55956338  0.84472287  0.11869676    -0.13800
C558        C  0.70073995  0.80537299  0.15784420     0.16000
C559        C  0.71946934  0.78501872  0.18097254     0.25400
C560        C  0.71122852  0.78657059  0.21623695    -0.40900
C561        C  0.68601001  0.81068215  0.22839148     0.32400
C562        C  0.66742438  0.83098353  0.20536149     0.14100
F563        F  0.70760133  0.80212680  0.12361167    -0.13200
F564        F  0.67912756  0.81426248  0.26260419    -0.13800
F565        F  0.74423882  0.76249232  0.16871700    -0.16000
F566        F  0.64254900  0.85347023  0.21755632    -0.14600
F567        F  0.60330597  0.80878729  0.15952101    -0.14600
F568        F  0.65485672  0.92042862  0.08898822    -0.16000
C569        C  0.34503960  0.86237182  0.89517722     0.14100
C570        C  0.35733985  0.84937346  0.86310313     0.01000
C571        C  0.39232048  0.85591808  0.85386402     0.16000
C572        C  0.41433256  0.87527259  0.87603655     0.25400
C573        C  0.40153887  0.88918855  0.90734378    -0.40900
C574        C  0.36683393  0.88245963  0.91688251     0.32400
C575        C  0.33348105  0.83047288  0.83859306     0.01100
F576        F  0.40484094  0.84469313  0.82276987    -0.13200
F577        F  0.35424506  0.89479184  0.94759011    -0.13800
C578        C  0.30162883  0.84567362  0.82883016     0.16000
C579        C  0.28048622  0.82938857  0.80375041     0.25400
C580        C  0.29102645  0.79783096  0.78701000    -0.40900
C581        C  0.32201554  0.78171261  0.79819157     0.32400
C582        C  0.34293972  0.79784502  0.82371265     0.14100
F583        F  0.29137093  0.87699946  0.84276062    -0.13200
F584        F  0.33284420  0.75084632  0.78391961    -0.13800
F585        F  0.24937552  0.84451676  0.79618836    -0.16000
F586        F  0.37263228  0.78157208  0.83384994    -0.14600
F587        F  0.31199183  0.85537724  0.90566192    -0.14600
F588        F  0.44775299  0.88166299  0.86631476    -0.16000
C589        C  0.80786816  0.15647943  0.66556632     0.14100
C590        C  0.84154072  0.17024584  0.66075348     0.01000
C591        C  0.85140041  0.20052746  0.67977233     0.16000
C592        C  0.82838577  0.21621196  0.70367985     0.25400
C593        C  0.79485642  0.20219805  0.70875538    -0.40900
C594        C  0.78466827  0.17246342  0.68901251     0.32400
C595        C  0.86652569  0.15233011  0.63668848     0.01100
F596        F  0.88344710  0.21489729  0.67530074    -0.13200
F597        F  0.75212199  0.15883823  0.69228702    -0.13800
C598        C  0.85699074  0.14458703  0.60235952     0.16000
C599        C  0.87949636  0.12555766  0.58040408     0.25400
C600        C  0.91241931  0.11409599  0.59210715    -0.40900
C601        C  0.92237482  0.12306299  0.62625568     0.32400
C602        C  0.89957541  0.14164729  0.64827404     0.14100
F603        F  0.82571204  0.15546453  0.59000121    -0.13200
F604        F  0.95376246  0.11332507  0.63906063    -0.13800
F605        F  0.86866873  0.11808340  0.54772215    -0.16000
F606        F  0.90938351  0.14802999  0.68146842    -0.14600
F607        F  0.79774790  0.12682249  0.64830121    -0.14600
F608        F  0.83955275  0.24421890  0.72289073    -0.16000
C609        C  0.66185308  0.15092103  0.81009784     0.14100
C610        C  0.66897776  0.14555396  0.84484546     0.01000
C611        C  0.69713871  0.16299800  0.86065618     0.16000
C612        C  0.71774128  0.18610960  0.84214986     0.25400
C613        C  0.71008484  0.19280478  0.80715265    -0.40900
C614        C  0.68245886  0.17365410  0.79132344     0.32400
C615        C  0.64736567  0.12118224  0.86446077     0.01100
F616        F  0.70480352  0.15750715  0.89422896    -0.13200
F617        F  0.67558521  0.17653498  0.75722058    -0.13800
C618        C  0.66153289  0.08961724  0.87554496     0.16000
C619        C  0.64143639  0.06704299  0.89511681     0.25400
C620        C  0.60675745  0.07595943  0.90431979    -0.40900
C621        C  0.59233214  0.10711192  0.89185097     0.32400
C622        C  0.61250412  0.12949352  0.87220848     0.14100
F623        F  0.69498086  0.08071722  0.86744596    -0.13200
F624        F  0.55872508  0.11626313  0.89892582    -0.13800
F625        F  0.65650457  0.03702818  0.90546163    -0.16000
F626        F  0.59828185  0.15984843  0.86150170    -0.14600
F627        F  0.63523018  0.13350725  0.79411529    -0.14600
F628        F  0.74604039  0.19972867  0.85855467    -0.16000
C629        C  0.15789540  0.39844518  0.10089213     0.14100
C630        C  0.14367606  0.37745458  0.12636355     0.01000
C631        C  0.10742284  0.37814176  0.13223052     0.16000
C632        C  0.08559032  0.39903616  0.11238325     0.25400
C633        C  0.09975695  0.41976039  0.08653945    -0.40900
C634        C  0.13621441  0.41964523  0.08134484     0.32400
C635        C  0.16664257  0.35423806  0.14620661     0.01100
F636        F  0.09311489  0.35787493  0.15661884    -0.13200
F637        F  0.15086199  0.43906444  0.05647216    -0.13800
C638        C  0.17095377  0.35967130  0.18173453     0.16000
C639        C  0.19226779  0.33737553  0.20049746     0.25400
C640        C  0.21050285  0.30921913  0.18410935    -0.40900
C641        C  0.20483173  0.30337816  0.14827205     0.32400
C642        C  0.18363308  0.32597875  0.12968466     0.14100
F643        F  0.15452559  0.38676482  0.19831107    -0.13200
F644        F  0.21729083  0.27482063  0.13095257    -0.13800
F645        F  0.19453735  0.34308134  0.23509838    -0.16000
F646        F  0.17855424  0.31940791  0.09549338    -0.14600
F647        F  0.19286305  0.39826318  0.09486524    -0.14600
F648        F  0.05068592  0.39927341  0.11869405    -0.16000
C649        C  0.16600940  0.66222884  0.19970515     0.14100
C650        C  0.16591290  0.67102556  0.16484609     0.01000
C651        C  0.18869684  0.69737253  0.15388972     0.16000
C652        C  0.21195426  0.71374940  0.17726064     0.25400
C653        C  0.21291052  0.70381363  0.21183722    -0.40900
C654        C  0.18922104  0.67836954  0.22289773     0.32400
C655        C  0.14348561  0.65110189  0.13989576     0.01100
F656        F  0.18957161  0.70605966  0.12026148    -0.13200
F657        F  0.18847463  0.66908589  0.25636577    -0.13800
C658        C  0.11833508  0.66799914  0.11982682     0.16000
C659        C  0.09746549  0.64874602  0.09635270     0.25400
C660        C  0.10156126  0.61219128  0.09234923    -0.40900
C661        C  0.12600173  0.59533278  0.11339429     0.32400
C662        C  0.14685770  0.61457684  0.13660370     0.14100
F663        F  0.11369790  0.70311343  0.12326153    -0.13200
F664        F  0.12950954  0.56003430  0.11212104    -0.13800
F665        F  0.07371497  0.66604303  0.07718929    -0.16000
F666        F  0.17088073  0.59743884  0.15561427    -0.14600
F667        F  0.14367907  0.63766436  0.21129808    -0.14600
F668        F  0.23473087  0.73791317  0.16569238    -0.16000
C669        C  0.86447716  0.61385591  0.13984115     0.14100
C670        C  0.86831318  0.64984528  0.14663546     0.01000
C671        C  0.89388450  0.66843692  0.12889268     0.16000
C672        C  0.91466093  0.65146450  0.10383653     0.25400
C673        C  0.91029228  0.61545223  0.09632382    -0.40900
C674        C  0.88523444  0.59679248  0.11496963     0.32400
C675        C  0.84435040  0.66817127  0.17097632     0.01100
F676        F  0.89775377  0.70335227  0.13489113    -0.13200
F677        F  0.88066167  0.56193787  0.10910590    -0.13800
C678        C  0.85673521  0.68231003  0.20245895     0.16000
C679        C  0.83355871  0.69860435  0.22579128     0.25400
C680        C  0.79797305  0.70171623  0.21749275    -0.40900
C681        C  0.78557104  0.68736534  0.18617367     0.32400
C682        C  0.80859566  0.67071442  0.16305354     0.14100
F683        F  0.89100920  0.67927700  0.21101111    -0.13200
F684        F  0.75101425  0.68891521  0.17833477    -0.13800
F685        F  0.84553734  0.70994258  0.25703349    -0.16000
F686        F  0.79604788  0.65700528  0.13287748    -0.14600
F687        F  0.84040729  0.59525274  0.15727074    -0.14600
F688        F  0.93773785  0.67075639  0.08595227    -0.16000
C689        C  0.19068243  0.65987205  0.79925254     0.14100
C690        C  0.16468262  0.67417185  0.82117524     0.01000
C691        C  0.15902943  0.71051556  0.82195834     0.16000
C692        C  0.17816777  0.73197776  0.80053284     0.25400
C693        C  0.20390660  0.71765646  0.77853462    -0.40900
C694        C  0.21045545  0.68155909  0.77839757     0.32400
C695        C  0.14350863  0.65143260  0.84333551     0.01100
F696        F  0.13521757  0.72534767  0.84381482    -0.13200
F697        F  0.23490651  0.66711799  0.75700902    -0.13800
C698        C  0.15992153  0.62836927  0.86577921     0.16000
C699        C  0.14001276  0.60761447  0.88733483     0.25400
C700        C  0.10323165  0.60984825  0.88714653    -0.40900
C701        C  0.08684817  0.63315486  0.86496736     0.32400
C702        C  0.10675048  0.65342850  0.84295478     0.14100
F703        F  0.19534375  0.62682798  0.86775442    -0.13200
F704        F  0.05146179  0.63597793  0.86425590    -0.13800
F705        F  0.15696544  0.58665428  0.90948964    -0.16000
F706        F  0.09003657  0.67480029  0.82098329    -0.14600
F707        F  0.19617941  0.62480551  0.79722344    -0.14600
F708        F  0.17181256  0.76692427  0.80150118    -0.16000
C709        C  0.89951849  0.65573736  0.84040970     0.14100
C710        C  0.86281541  0.65369079  0.84179489     0.01000
C711        C  0.84735223  0.63018877  0.86438702     0.16000
C712        C  0.86814790  0.60968149  0.88564210     0.25400
C713        C  0.90488433  0.61275951  0.88525502    -0.40900
C714        C  0.92031935  0.63560068  0.86193837     0.32400
C715        C  0.84093785  0.67646511  0.81997418     0.01100
F716        F  0.81201755  0.62797067  0.86681124    -0.13200
F717        F  0.95560951  0.63811482  0.85944208    -0.13800
C718        C  0.81578691  0.66204092  0.79719996     0.16000
C719        C  0.79664153  0.68360230  0.77543267     0.25400
C720        C  0.80257323  0.71986961  0.77587869    -0.40900
C721        C  0.82701325  0.73433672  0.79924463     0.32400
C722        C  0.84585500  0.71291403  0.82116809     0.14100
F723        F  0.81080268  0.62692434  0.79500032    -0.13200
F724        F  0.83252559  0.76939160  0.80096288    -0.13800
F725        F  0.77364005  0.66881640  0.75272582    -0.16000
F726        F  0.86894946  0.72784897  0.84369062    -0.14600
F727        F  0.91531607  0.67712950  0.81789729    -0.14600
F728        F  0.85213395  0.58773823  0.90747052    -0.16000
C729        C  0.15628973  0.32459459  0.80024021     0.14100
C730        C  0.16711963  0.34652123  0.82787967     0.01000
C731        C  0.20180237  0.34458810  0.83955880     0.16000
C732        C  0.22500731  0.32036667  0.82453027     0.25400
C733        C  0.21387665  0.29757173  0.79757842    -0.40900
C734        C  0.17952253  0.30036583  0.78511519     0.32400
C735        C  0.14168496  0.36953711  0.84624027     0.01100
F736        F  0.21274455  0.36508638  0.86657858    -0.13200
F737        F  0.16781932  0.27831277  0.75965511    -0.13800
C738        C  0.11365229  0.35477355  0.86394540     0.16000
C739        C  0.09070339  0.37594755  0.88327037     0.25400
C740        C  0.09550962  0.41250730  0.88551115    -0.40900
C741        C  0.12325291  0.42728701  0.86705744     0.32400
C742        C  0.14614936  0.40596520  0.84764243     0.14100
F743        F  0.10944224  0.31953000  0.86380738    -0.13200
F744        F  0.12832773  0.46241186  0.86788771    -0.13800
F745        F  0.06499043  0.36014996  0.90107285    -0.16000
F746        F  0.17283743  0.42083221  0.83032765    -0.14600
F747        F  0.12291857  0.32614776  0.78845491    -0.14600
F748        F  0.25826819  0.31883436  0.83668534    -0.16000
C749        C  0.81511783  0.33434055  0.13322592     0.14100
C750        C  0.84190713  0.35341742  0.14957209     0.01000
C751        C  0.84707430  0.35037310  0.18499229     0.16000
C752        C  0.82611057  0.32800288  0.20380668     0.25400
C753        C  0.80021977  0.30692196  0.18740740    -0.40900
C754        C  0.79418083  0.31164405  0.15179580     0.32400
C755        C  0.86405869  0.37688873  0.12951459     0.01100
F756        F  0.87273129  0.36887850  0.20135496    -0.13200
F757        F  0.76690361  0.29665038  0.13481216    -0.13800
C758        C  0.86203169  0.41331219  0.13474353     0.16000
C759        C  0.88169453  0.43549515  0.11426372     0.25400
C760        C  0.90394493  0.42144678  0.08856795    -0.40900
C761        C  0.90645786  0.38483271  0.08402657     0.32400
C762        C  0.88657343  0.36281918  0.10424902     0.14100
F763        F  0.84043997  0.42733381  0.15921028    -0.13200
F764        F  0.92727501  0.37019602  0.05922310    -0.13800
F765        F  0.87929297  0.47059442  0.11986267    -0.16000
F766        F  0.88920789  0.32764678  0.09913474    -0.14600
F767        F  0.80851866  0.33857523  0.09923084    -0.14600
F768        F  0.83102188  0.32722983  0.23841043    -0.16000
C769        C  0.81578825  0.35208144  0.80036274     0.14100
C770        C  0.84124644  0.34371356  0.82503305     0.01000
C771        C  0.84668669  0.30840336  0.83275058     0.16000
C772        C  0.82648705  0.28214657  0.81693787     0.25400
C773        C  0.80024191  0.29060989  0.79327461    -0.40900
C774        C  0.79551362  0.32567945  0.78451155     0.32400
C775        C  0.86122924  0.37144343  0.84404838     0.01100
F776        F  0.87054518  0.29940871  0.85685351    -0.13200
F777        F  0.77004546  0.33458420  0.76201922    -0.13800
C778        C  0.84373960  0.39780837  0.86331677     0.16000
C779        C  0.86253213  0.42135843  0.88453426     0.25400
C780        C  0.89922300  0.41870486  0.88718806    -0.40900
C781        C  0.91665456  0.39291510  0.86711781     0.32400
C782        C  0.89791718  0.36986516  0.84549547     0.14100
F783        F  0.80827238  0.39961025  0.86307669    -0.13200
F784        F  0.95198158  0.38976362  0.86858959    -0.13800
F785        F  0.84445351  0.44529416  0.90389065    -0.16000
F786        F  0.91565149  0.34553481  0.82625419    -0.14600
F787        F  0.81020170  0.38583731  0.79199598    -0.14600
F788        F  0.83213622  0.24836096  0.82521975    -0.16000
C789        C  0.63262385  0.60727548  0.65618788     0.14100
C790        C  0.65363422  0.63120342  0.63882640     0.01000
C791        C  0.65162376  0.63228361  0.60276168     0.16000
C792        C  0.62852161  0.61050568  0.58443664     0.25400
C793        C  0.60638043  0.58750412  0.60180673    -0.40900
C794        C  0.60912646  0.58566193  0.63787626     0.32400
C795        C  0.67665641  0.65606499  0.65813516     0.01100
F796        F  0.67128013  0.65532271  0.58522597    -0.13200
F797        F  0.58830784  0.56384050  0.65561806    -0.13800
C798        C  0.71241237  0.65828746  0.65004616     0.16000
C799        C  0.73337679  0.68390655  0.66600550     0.25400
C800        C  0.71909304  0.70738001  0.69073374    -0.40900
C801        C  0.68368820  0.70451108  0.69966843     0.32400
C802        C  0.66254891  0.67922777  0.68331039     0.14100
F803        F  0.72698558  0.63573168  0.62651410    -0.13200
F804        F  0.66912928  0.72741508  0.72286534    -0.13800
F805        F  0.76770458  0.68578033  0.65735248    -0.16000
F806        F  0.62791428  0.67845568  0.69087586    -0.14600
F807        F  0.63475876  0.60497559  0.69094176    -0.14600
F808        F  0.62808879  0.61200443  0.54958072    -0.16000
C809        C  0.34408884  0.37804354  0.63235353     0.14100
C810        C  0.35818552  0.34798923  0.64728774     0.01000
C811        C  0.39323494  0.33898523  0.64044651     0.16000
C812        C  0.41372308  0.35941954  0.61904247     0.25400
C813        C  0.39977518  0.38953664  0.60444191    -0.40900
C814        C  0.36483367  0.39877627  0.61123039     0.32400
C815        C  0.33688935  0.32619801  0.67048010     0.01100
F816        F  0.40799573  0.31093375  0.65543188    -0.13200
F817        F  0.35070139  0.42754918  0.59698073    -0.13800
C818        C  0.33286679  0.29011454  0.66338671     0.16000
C819        C  0.31522579  0.26900955  0.68655415     0.25400
C820        C  0.30064511  0.28372442  0.71677535    -0.40900
C821        C  0.30391846  0.31977832  0.72365278     0.32400
C822        C  0.32210276  0.34085818  0.70080539     0.14100
F823        F  0.34609966  0.27532286  0.63398188    -0.13200
F824        F  0.29058274  0.33429471  0.75314168    -0.13800
F825        F  0.31244939  0.23414494  0.67959134    -0.16000
F826        F  0.32647784  0.37531279  0.70896992    -0.14600
F827        F  0.31016625  0.38706201  0.63791805    -0.14600
F828        F  0.44767846  0.35049265  0.61355649    -0.16000
C829        C  0.66219430  0.35930808  0.39430676     0.14100
C830        C  0.64801495  0.34803622  0.36235350     0.01000
C831        C  0.61237007  0.35420803  0.35581810     0.16000
C832        C  0.59173156  0.37242953  0.38002695     0.25400
C833        C  0.60601284  0.38403437  0.41164859    -0.40900
C834        C  0.64120102  0.37687921  0.41890566     0.32400
C835        C  0.67036516  0.33098255  0.33530273     0.01100
F836        F  0.59749367  0.34258479  0.32587448    -0.13200
F837        F  0.65560846  0.38837571  0.44910292    -0.13800
C838        C  0.69026235  0.30106602  0.34229002     0.16000
C839        C  0.71126362  0.28522140  0.31668254     0.25400
C840        C  0.71237840  0.29860231  0.28326566    -0.40900
C841        C  0.69186372  0.32824431  0.27621361     0.32400
C842        C  0.67158600  0.34448768  0.30203228     0.14100
F843        F  0.68919044  0.28695566  0.37393261    -0.13200
F844        F  0.69092457  0.34140367  0.24413620    -0.13800
F845        F  0.73137631  0.25751909  0.32514363    -0.16000
F846        F  0.65352083  0.37392252  0.29460716    -0.14600
F847        F  0.69667854  0.35463395  0.40111956    -0.14600
F848        F  0.55765141  0.37878953  0.37257505    -0.16000
C849        C  0.36367277  0.58492544  0.35876160     0.14100
C850        C  0.35513737  0.61883204  0.37066252     0.01000
C851        C  0.36603784  0.63012977  0.40359693     0.16000
C852        C  0.38695030  0.60860934  0.42359509     0.25400
C853        C  0.39738500  0.57520168  0.41099913    -0.40900
C854        C  0.38431288  0.56314931  0.37878961     0.32400
C855        C  0.33621713  0.64300541  0.34816125     0.01100
F856        F  0.35759378  0.66265577  0.41584354    -0.13200
F857        F  0.39161649  0.53057159  0.36614705    -0.13800
C858        C  0.30287417  0.65535941  0.35711336     0.16000
C859        C  0.28531425  0.67866597  0.33602264     0.25400
C860        C  0.30149770  0.69161463  0.30615882    -0.40900
C861        C  0.33403395  0.67674883  0.29613927     0.32400
C862        C  0.35141565  0.65343756  0.31731066     0.14100
F863        F  0.28683365  0.64397549  0.38586527    -0.13200
F864        F  0.34859231  0.68311267  0.26512017    -0.13800
F865        F  0.25183723  0.68713840  0.34428290    -0.16000
F866        F  0.38328898  0.64094745  0.30760464    -0.14600
F867        F  0.35219765  0.57300131  0.32748565    -0.14600
F868        F  0.39761744  0.62102611  0.45496616    -0.16000
C869        C  0.63590446  0.63650461  0.40510768     0.14100
C870        C  0.64935335  0.62446090  0.37335330     0.01000
C871        C  0.64290184  0.58991775  0.36221157     0.16000
C872        C  0.62249101  0.56785372  0.38205582     0.25400
C873        C  0.60752196  0.58014804  0.41340294    -0.40900
C874        C  0.61519103  0.61464618  0.42497085     0.32400
C875        C  0.66907950  0.64826512  0.35119498     0.01100
F876        F  0.65626382  0.57759743  0.33182432    -0.13200
F877        F  0.60207961  0.62769323  0.45517163    -0.13800
C878        C  0.70306750  0.65873196  0.35997737     0.16000
C879        C  0.72173479  0.68100721  0.33875044     0.25400
C880        C  0.70622538  0.69468752  0.30885882    -0.40900
C881        C  0.67280974  0.68176468  0.29907516     0.32400
C882        C  0.65438095  0.65938212  0.32033899     0.14100
F883        F  0.71866247  0.64634802  0.38857849    -0.13200
F884        F  0.65849473  0.68849908  0.26802534    -0.13800
F885        F  0.75555477  0.68805114  0.34692913    -0.16000
F886        F  0.62218799  0.64799570  0.31045213    -0.14600
F887        F  0.64186812  0.66990711  0.41631805    -0.14600
F888        F  0.61737235  0.53466033  0.37004686    -0.16000
C889        C  0.62605140  0.33716750  0.63026782     0.14100
C890        C  0.65165946  0.35379796  0.65075185     0.01000
C891        C  0.65496266  0.39034878  0.65009457     0.16000
C892        C  0.63245274  0.41003447  0.62966339     0.25400
C893        C  0.60647759  0.39338249  0.60941011    -0.40900
C894        C  0.60369013  0.35671232  0.60976756     0.32400
C895        C  0.67322090  0.33283860  0.67424436     0.01100
F896        F  0.68002085  0.40689681  0.66919113    -0.13200
F897        F  0.57822329  0.33981642  0.59153166    -0.13800
C898        C  0.69779258  0.30862441  0.66102460     0.16000
C899        C  0.71550640  0.28628920  0.68307800     0.25400
C900        C  0.70856524  0.28751479  0.71861888    -0.40900
C901        C  0.68427809  0.31207676  0.73188105     0.32400
C902        C  0.66695382  0.33472545  0.70987207     0.14100
F903        F  0.70410568  0.30620473  0.62665185    -0.13200
F904        F  0.67729465  0.31411793  0.76614823    -0.13800
F905        F  0.73818100  0.26228951  0.66949763    -0.16000
F906        F  0.64304100  0.35765895  0.72313774    -0.14600
F907        F  0.62188469  0.30197011  0.63113961    -0.14600
F908        F  0.63633870  0.44528414  0.62936981    -0.16000
C909        C  0.29614291  0.65344663  0.66361929     0.14100
C910        C  0.33278414  0.65553849  0.66441448     0.01000
C911        C  0.34885693  0.68245741  0.68408438     0.16000
C912        C  0.32851189  0.70783116  0.70146397     0.25400
C913        C  0.29189185  0.70632148  0.69974465    -0.40900
C914        C  0.27585629  0.67864888  0.68115490     0.32400
C915        C  0.35415484  0.63098506  0.64304428     0.01100
F916        F  0.38423717  0.68522196  0.68487995    -0.13200
F917        F  0.24046112  0.67670391  0.67916933    -0.13800
C918        C  0.35203417  0.63145165  0.60693930     0.16000
C919        C  0.37323123  0.60935633  0.58654023     0.25400
C920        C  0.39688770  0.58628335  0.60193809    -0.40900
C921        C  0.39829267  0.58529602  0.63816426     0.32400
C922        C  0.37725397  0.60760949  0.65848572     0.14100
F923        F  0.33000268  0.65400486  0.59143423    -0.13200
F924        F  0.42090513  0.56362715  0.65405345    -0.13800
F925        F  0.37036125  0.61043235  0.55175079    -0.16000
F926        F  0.37948297  0.60648628  0.69331816    -0.14600
F927        F  0.28006980  0.62733200  0.64528600    -0.14600
F928        F  0.34456738  0.73509808  0.71794063    -0.16000
C929        C  0.30403859  0.34055631  0.33020821     0.14100
C930        C  0.33945938  0.33152789  0.33326015     0.01000
C931        C  0.35389869  0.30630536  0.31029836     0.16000
C932        C  0.33307576  0.29053712  0.28446833     0.25400
C933        C  0.29778499  0.30018690  0.28113441    -0.40900
C934        C  0.28339839  0.32505195  0.30439067     0.32400
C935        C  0.36131648  0.34975611  0.35957925     0.01100
F936        F  0.38835536  0.29794408  0.31215556    -0.13200
F937        F  0.24912106  0.33404160  0.30230428    -0.13800
C938        C  0.37598462  0.33159915  0.38700433     0.16000
C939        C  0.39612875  0.34933618  0.41210961     0.25400
C940        C  0.40206095  0.38556179  0.40995193    -0.40900
C941        C  0.38628031  0.40372869  0.38295121     0.32400
C942        C  0.36637603  0.38596480  0.35795531     0.14100
F943        F  0.37057728  0.29671661  0.38956270    -0.13200
F944        F  0.39012993  0.43886226  0.38059301    -0.13800
F945        F  0.41045112  0.33077192  0.43779519    -0.16000
F946        F  0.35244588  0.40409601  0.33169576    -0.14600
F947        F  0.28945828  0.36451023  0.35234508    -0.14600
F948        F  0.34762997  0.26691968  0.26196761    -0.16000
loop_ 
_geom_bond_atom_site_label_1 
_geom_bond_atom_site_label_2 
_geom_bond_distance 
_geom_bond_site_symmetry_2 
_ccdc_geom_bond_type 
C1           N19   1.352       .  A
C1           C38   1.468       .  S
C1          C853   1.489       .  S
N2           N19   1.323       .  A
N2           N24   1.317       .  A
N2          Co39   2.080       .  S
C3           N28   1.346       .  A
C3           C41   1.465       .  S
C3           H48   1.081       .  S
H4           C45   1.081       .  S
C5           N29   1.343       .  A
C5            C9   1.461       .  S
C5           H34   1.082       .  S
Co6          N24   2.081       .  S
Co6          N14   2.072       .  S
Co6          N46   2.080       .  S
Co6          N22   2.078       .  S
Co6         Cl50   2.443       .  S
N7           C45   1.345       .  A
N7           N14   1.319       .  A
N7           Co8   2.093       .  S
Co8          N11   2.093       .  S
Co8          N28   2.100       .  S
Co8          N15   2.090       .  S
Co8         Cl50   2.460       .  S
C9           N47   1.351       .  A
C9          C813   1.476       .  S
N10          N17   1.319       .  A
N10          N40   1.324       .  A
N10         Co43   2.088       .  S
N11          N29   1.321       .  A
N11          N47   1.326       .  A
N12          C41   1.347       .  A
N12          N22   1.322       .  A
H13          C38   1.080       .  S
N14          N35   1.320       .  A
N15          N33   1.321       .  A
N15          N20   1.325       .  A
C16          N20   1.351       .  A
C16          C44   1.462       .  S
C16         C893   1.482       .  S
N17          C32   1.340       .  A
N17         Co39   2.082       .  S
C18          N46   1.339       .  A
C18          C21   1.467       .  S
C18          H52   1.079       .  S
C21          N42   1.355       .  A
C21         C873   1.494       .  S
N22          N28   1.321       .  A
N23          C49   1.336       .  A
N23          N25   1.320       .  A
N23         Co39   2.074       .  S
N24          C38   1.340       .  A
N25          N53   1.327       .  A
N25         Co43   2.095       .  S
H26          C49   1.081       .  S
H27          C44   1.081       .  S
N29         Co43   2.094       .  S
N30          N42   1.325       .  A
N30          N46   1.317       .  A
N30         Co39   2.092       .  S
C31          N35   1.347       .  A
C31          C45   1.469       .  S
C31         C940   1.483       .  S
C32          C51   1.462       .  S
C32          H36   1.081       .  S
N33          C44   1.343       .  A
N33         Co43   2.091       .  S
C37          N53   1.354       .  A
C37          C49   1.459       .  S
C37         C793   1.483       .  S
Co39        Cl50   2.452       .  S
N40          C51   1.352       .  A
C41         C833   1.475       .  S
Co43        Cl50   2.449       .  S
C51         C920   1.483       .  S
C54          N72   1.354       .  A
C54          C91   1.464       .  S
C54         C740   1.486       .  S
N55          N72   1.325       .  A
N55          N77   1.319       .  A
N55         Co92   2.092       .  S
C56          N81   1.344       .  A
C56          C94   1.466       .  S
C56         H101   1.082       .  S
H57          C98   1.080       .  S
C58          N82   1.342       .  A
C58          C62   1.465       .  S
C58          H87   1.081       .  S
Co59         N77   2.079   1_655  S
Co59         N67   2.091       .  S
Co59         N99   2.090   1_656  S
Co59         N75   2.072   1_556  S
Co59       Cl103   2.446   1_655  S
N60          C98   1.342       .  A
N60          N67   1.319       .  A
N60         Co61   2.083       .  S
Co61         N64   2.089       .  S
Co61         N81   2.091   1_556  S
Co61         N68   2.080   1_556  S
Co61       Cl103   2.453   1_655  S
C62         N100   1.351       .  A
C62         C713   1.487       .  S
N63          N70   1.319       .  A
N63          N93   1.325       .  A
N63         Co96   2.092       .  S
N64          N82   1.321       .  A
N64         N100   1.325       .  A
N65          C94   1.347       .  A
N65          N75   1.320       .  A
H66          C91   1.080       .  S
N67          N88   1.325       .  A
N68          N86   1.319       .  A
N68          N73   1.323       .  A
C69          N73   1.350       .  A
C69          C97   1.465       .  S
C69         C673   1.484       .  S
N70          C85   1.338       .  A
N70         Co92   2.071       .  S
C71          N99   1.343       .  A
C71          C74   1.464       .  S
C71         H105   1.082       .  S
C74          N95   1.349       .  A
C74         C633   1.480       .  S
N75          N81   1.319       .  A
N76         C102   1.339       .  A
N76          N78   1.320       .  A
N76         Co92   2.087   1_554  S
N77          C91   1.338       .  A
N78         N106   1.327       .  A
N78         Co96   2.094   1_554  S
H79         C102   1.080       .  S
H80          C97   1.081       .  S
N82         Co96   2.093   1_655  S
N83          N95   1.323       .  A
N83          N99   1.319       .  A
N83         Co92   2.076   1_554  S
C84          N88   1.352       .  A
C84          C98   1.464       .  S
C84         C780   1.485       .  S
C85         C104   1.458       .  S
C85          H89   1.081       .  S
N86          C97   1.342       .  A
N86         Co96   2.088   1_654  S
C90         N106   1.354       .  A
C90         C102   1.464       .  S
C90         C660   1.490       .  S
Co92       Cl103   2.450       .  S
N93         C104   1.352       .  A
C94         C760   1.478       .  S
Co96       Cl103   2.454       .  S
C104        C700   1.478       .  S
C107        C108   1.542       .  S
C107        C113   1.543       .  S
C107        C111   1.536       .  S
C107        C613   1.538       .  S
C108        H115   1.086       .  S
C108        C109   1.366       .  D
C109        C110   1.538       .  S
C109        C900   1.484       .  S
C110        C114   1.537       .  S
C110        C112   1.541       .  S
C110        H116   1.110       .  S
C111        H117   1.086       .  S
C111        C112   1.366       .  D
C112        C593   1.489       .  S
C113        H118   1.079       .  S
C113        C114   1.366       .  D
C114        C773   1.481       .  S
C119        N137   1.348       .  A
C119        C156   1.465       .  S
C119        C533   1.478       .  S
N120        N137   1.321       .  A
N120        N142   1.319       .  A
N120       Co157   2.074   1_546  S
C121        N146   1.343       .  A
C121        C159   1.470       .  S
C121        H166   1.080       .  S
H122        C163   1.080       .  S
C123        N147   1.343       .  A
C123        C127   1.469       .  S
C123        H152   1.080       .  S
Co124       N142   2.088   1_554  S
Co124       N132   2.085   1_554  S
Co124       N164   2.091       .  S
Co124       N140   2.084       .  S
Co124      Cl168   2.456   1_545  S
N125        C163   1.339       .  A
N125        N132   1.318       .  A
N125       Co126   2.076   1_546  S
Co126       N129   2.097   1_554  S
Co126       N146   2.096   1_565  S
Co126       N133   2.074       .  S
Co126      Cl168   2.445       .  S
C127        N165   1.354       .  A
C127        C513   1.498       .  S
N128        N135   1.320       .  A
N128        N158   1.326       .  A
N128       Co161   2.092   1_556  S
N129        N147   1.320       .  A
N129        N165   1.325       .  A
N130        C159   1.352       .  A
N130        N140   1.324       .  A
H131        C156   1.082       .  S
N132        N153   1.322       .  A
N133        N151   1.319       .  A
N133        N138   1.321       .  A
C134        N138   1.348       .  A
C134        C162   1.469       .  S
C134        C553   1.487       .  S
N135        C150   1.338       .  A
N135       Co157   2.076   1_556  S
C136        N164   1.344       .  A
C136        C139   1.465       .  S
C136        H170   1.082       .  S
C139        N160   1.349       .  A
C139        C480   1.482       .  S
N140        N146   1.319       .  A
N141        C167   1.338       .  A
N141        N143   1.320       .  A
N141       Co157   2.068       .  S
N142        C156   1.343       .  A
N143        N171   1.326       .  A
N143       Co161   2.101       .  S
H144        C167   1.081       .  S
H145        C162   1.080       .  S
N147       Co161   2.093   1_556  S
N148        N160   1.323       .  A
N148        N164   1.319       .  A
N148       Co157   2.080   1_545  S
C149        N153   1.352       .  A
C149        C163   1.466       .  S
C149        C620   1.486       .  S
C150        C169   1.456       .  S
C150        H154   1.082       .  S
N151        C162   1.342       .  A
N151       Co161   2.090       .  S
C155        N171   1.354       .  A
C155        C167   1.457       .  S
C155        C493   1.479       .  S
Co157      Cl168   2.445       .  S
N158        C169   1.351       .  A
C159        C453   1.492       .  S
Co161      Cl168   2.455       .  S
C169        C573   1.473       .  S
C172        C173   1.530       .  S
C172        C178   1.536       .  S
C172        C176   1.545       .  S
C172        C440   1.536       .  S
C173        H180   1.087       .  S
C173        C174   1.361       .  D
C174        C175   1.536       .  S
C174        C693   1.475       .  S
C175        C179   1.543       .  S
C175        C177   1.547       .  S
C175        H181   1.109       .  S
C176        H182   1.080       .  S
C176        C177   1.372       .  D
C177        C580   1.500       .  S
C178        H183   1.086       .  S
C178        C179   1.363       .  D
C179        C913   1.479       .  S
C184        N202   1.352       .  A
C184        C221   1.471       .  S
C184        C413   1.494       .  S
N185        N202   1.323       .  A
N185        N207   1.319       .  A
N185       Co222   2.088   1_655  S
C186        N211   1.338       .  A
C186        C224   1.464       .  S
C186        H231   1.080       .  S
H187        C228   1.079       .  S
C188        N212   1.346       .  A
C188        C192   1.471       .  S
C188        H217   1.080       .  S
Co189       N207   2.095       .  S
Co189       N197   2.086       .  S
Co189       N229   2.076   1_545  S
Co189       N205   2.090   1_545  S
Co189      Cl233   2.455   1_655  S
N190        C228   1.340       .  A
N190        N197   1.318       .  A
N190       Co191   2.084   1_655  S
Co191       N194   2.077       .  S
Co191       N211   2.073   1_445  S
Co191       N198   2.079   1_545  S
Co191      Cl233   2.442       .  S
C192        N230   1.349       .  A
C192        C313   1.490       .  S
N193        N200   1.321       .  A
N193        N223   1.325       .  A
N193       Co226   2.088       .  S
N194        N212   1.320       .  A
N194        N230   1.323       .  A
N195        C224   1.354       .  A
N195        N205   1.324       .  A
H196        C221   1.081       .  S
N197        N218   1.324       .  A
N198        N216   1.318       .  A
N198        N203   1.321       .  A
C199        N203   1.350       .  A
C199        C227   1.471       .  S
C199        C433   1.489       .  S
N200        C215   1.340       .  A
N200       Co222   2.088       .  S
C201        N229   1.337       .  A
C201        C204   1.457       .  S
C201        H235   1.081       .  S
C204        N225   1.354       .  A
C204        C400   1.480       .  S
N205        N211   1.317       .  A
N206        C232   1.343       .  A
N206        N208   1.322       .  A
N206       Co222   2.088   1_565  S
N207        C221   1.344       .  A
N208        N236   1.326       .  A
N208       Co226   2.095   1_565  S
H209        C232   1.082       .  S
H210        C227   1.080       .  S
N212       Co226   2.103       .  S
N213        N225   1.327       .  A
N213        N229   1.319       .  A
N213       Co222   2.096   1_665  S
C214        N218   1.354       .  A
C214        C228   1.469       .  S
C214        C600   1.494       .  S
C215        C234   1.464       .  S
C215        H219   1.081       .  S
N216        C227   1.343       .  A
N216       Co226   2.088   1_565  S
C220        N236   1.350       .  A
C220        C232   1.458       .  S
C220        C373   1.473       .  S
Co222      Cl233   2.449       .  S
N223        C234   1.352       .  A
C224        C353   1.489       .  S
Co226      Cl233   2.461       .  S
C234        C340   1.486       .  S
C237        C238   1.543       .  S
C237        C243   1.543       .  S
C237        C241   1.532       .  S
C237        C880   1.536       .  S
C238        H245   1.083       .  S
C238        C239   1.366       .  D
C239        C240   1.535       .  S
C239        C560   1.479       .  S
C240        C244   1.539       .  S
C240        C242   1.538       .  S
C240        H246   1.110       .  S
C241        H247   1.087       .  S
C241        C242   1.360       .  D
C242        C680   1.475       .  S
C243        H248   1.085       .  S
C243        C244   1.370       .  D
C244        C393   1.486       .  S
C249        C250   1.537       .  S
C249        C255   1.543       .  S
C249        C253   1.540       .  S
C249        C640   1.540       .  S
C250        H257   1.086       .  S
C250        C251   1.367       .  D
C251        C252   1.541       .  S
C251        C333   1.492       .  S
C252        C256   1.539       .  S
C252        C254   1.538       .  S
C252        H258   1.110       .  S
C253        H259   1.086       .  S
C253        C254   1.366       .  D
C254        C933   1.479       .  S
C255        H260   1.079       .  S
C255        C256   1.363       .  D
C256        C473   1.478       .  S
C261        C262   1.535       .  S
C261        C267   1.541       .  S
C261        C265   1.534       .  S
C261        C753   1.536       .  S
C262        H269   1.086       .  S
C262        C263   1.367       .  D
C263        C264   1.545       .  S
C263        C840   1.496       .  S
C264        C268   1.547       .  S
C264        C266   1.544       .  S
C264        H270   1.107       .  S
C265        H271   1.087       .  S
C265        C266   1.360       .  D
C266        C420   1.478       .  S
C267        H272   1.079       .  S
C267        C268   1.369       .  D
C268        C460   1.498       .  S
C273        C274   1.530       .  S
C273        C279   1.541       .  S
C273        C277   1.539       .  S
C273        C860   1.535       .  S
C274        H281   1.086       .  S
C274        C275   1.366       .  D
C275        C276   1.542       .  S
C275        C653   1.488       .  S
C276        C280   1.541       .  S
C276        C278   1.542       .  S
C276        H282   1.110       .  S
C277        H283   1.084       .  S
C277        C278   1.365       .  D
C278        C500   1.482       .  S
C279        H284   1.084       .  S
C279        C280   1.368       .  D
C280        C380   1.486       .  S
C285        C286   1.540       .  S
C285        C291   1.545       .  S
C285        C289   1.541       .  S
C285        C540   1.545       .  S
C286        H293   1.086       .  S
C286        C287   1.370       .  D
C287        C288   1.543       .  S
C287        C320   1.494       .  S
C288        C292   1.536       .  S
C288        C290   1.536       .  S
C288        H294   1.110       .  S
C289        H295   1.086       .  S
C289        C290   1.364       .  D
C290        C820   1.478       .  S
C291        H296   1.075       .  S
C291        C292   1.363       .  D
C292        C733   1.484       .  S
C297        C298   1.536       .  S
C297        C303   1.538       .  S
C297        C301   1.549       .  S
C297        C360   1.543       .  S
C298        H305   1.087       .  S
C298        C299   1.364       .  D
C299        C300   1.538       .  S
C299        C800   1.479       .  S
C300        C304   1.539       .  S
C300        C302   1.539       .  S
C300        H306   1.111       .  S
C301        H307   1.076       .  S
C301        C302   1.368       .  D
C302        C520   1.490       .  S
C303        H308   1.086       .  S
C303        C304   1.366       .  D
C304        C720   1.484       .  S
C309        C310   1.404       .  A
C309        C314   1.401       .  A
C309        F327   1.358       .  S
C310        C315   1.489       .  S
C310        C311   1.407       .  A
C311        C312   1.403       .  A
C311        F316   1.358       .  S
C312        C313   1.409       .  A
C312        F328   1.356       .  S
C313        C314   1.411       .  A
C314        F317   1.358       .  S
C315        C318   1.406       .  A
C315        C322   1.406       .  A
C318        C319   1.401       .  A
C318        F323   1.358       .  S
C319        C320   1.410       .  A
C319        F325   1.358       .  S
C320        C321   1.409       .  A
C321        C322   1.403       .  A
C321        F324   1.357       .  S
C322        F326   1.358       .  S
C329        C330   1.407       .  A
C329        C334   1.399       .  A
C329        F347   1.358       .  S
C330        C335   1.491       .  S
C330        C331   1.408       .  A
C331        C332   1.400       .  A
C331        F336   1.358       .  S
C332        C333   1.406       .  A
C332        F348   1.352       .  S
C333        C334   1.410       .  A
C334        F337   1.358       .  S
C335        C338   1.408       .  A
C335        C342   1.408       .  A
C338        C339   1.399       .  A
C338        F343   1.358       .  S
C339        C340   1.408       .  A
C339        F345   1.357       .  S
C340        C341   1.409       .  A
C341        C342   1.400       .  A
C341        F344   1.358       .  S
C342        F346   1.358       .  S
C349        C350   1.401       .  A
C349        C354   1.399       .  A
C349        F367   1.358       .  S
C350        C355   1.477       .  S
C350        C351   1.402       .  A
C351        C352   1.399       .  A
C351        F356   1.358       .  S
C352        C353   1.412       .  A
C352        F368   1.358       .  S
C353        C354   1.413       .  A
C354        F357   1.355       .  S
C355        C358   1.398       .  A
C355        C362   1.398       .  A
C358        C359   1.398       .  A
C358        F363   1.358       .  S
C359        C360   1.421       .  A
C359        F365   1.350       .  S
C360        C361   1.420       .  A
C361        C362   1.399       .  A
C361        F364   1.359       .  S
C362        F366   1.358       .  S
C369        C370   1.407       .  A
C369        C374   1.403       .  A
C369        F387   1.358       .  S
C370        C375   1.483       .  S
C370        C371   1.406       .  A
C371        C372   1.400       .  A
C371        F376   1.358       .  S
C372        C373   1.404       .  A
C372        F388   1.358       .  S
C373        C374   1.404       .  A
C374        F377   1.358       .  S
C375        C378   1.407       .  A
C375        C382   1.404       .  A
C378        C379   1.404       .  A
C378        F383   1.358       .  S
C379        C380   1.408       .  A
C379        F385   1.358       .  S
C380        C381   1.407       .  A
C381        C382   1.397       .  A
C381        F384   1.358       .  S
C382        F386   1.358       .  S
C389        C390   1.406       .  A
C389        C394   1.400       .  A
C389        F407   1.358       .  S
C390        C395   1.485       .  S
C390        C391   1.406       .  A
C391        C392   1.398       .  A
C391        F396   1.358       .  S
C392        C393   1.408       .  A
C392        F408   1.358       .  S
C393        C394   1.406       .  A
C394        F397   1.355       .  S
C395        C398   1.407       .  A
C395        C402   1.406       .  A
C398        C399   1.402       .  A
C398        F403   1.358       .  S
C399        C400   1.407       .  A
C399        F405   1.357       .  S
C400        C401   1.407       .  A
C401        C402   1.397       .  A
C401        F404   1.358       .  S
C402        F406   1.358       .  S
C409        C410   1.403       .  A
C409        C414   1.403       .  A
C409        F427   1.358       .  S
C410        C415   1.484       .  S
C410        C411   1.403       .  A
C411        C412   1.400       .  A
C411        F416   1.358       .  S
C412        C413   1.413       .  A
C412        F428   1.358       .  S
C413        C414   1.412       .  A
C414        F417   1.356       .  S
C415        C418   1.405       .  A
C415        C422   1.407       .  A
C418        C419   1.401       .  A
C418        F423   1.358       .  S
C419        C420   1.406       .  A
C419        F425   1.358       .  S
C420        C421   1.402       .  A
C421        C422   1.400       .  A
C421        F424   1.356       .  S
C422        F426   1.358       .  S
C429        C430   1.401       .  A
C429        C434   1.400       .  A
C429        F447   1.358       .  S
C430        C435   1.475       .  S
C430        C431   1.400       .  A
C431        C432   1.398       .  A
C431        F436   1.358       .  S
C432        C433   1.414       .  A
C432        F448   1.358       .  S
C433        C434   1.412       .  A
C434        F437   1.355       .  S
C435        C438   1.399       .  A
C435        C442   1.398       .  A
C438        C439   1.398       .  A
C438        F443   1.358       .  S
C439        C440   1.418       .  A
C439        F445   1.354       .  S
C440        C441   1.419       .  A
C441        C442   1.399       .  A
C441        F444   1.358       .  S
C442        F446   1.358       .  S
C449        C450   1.404       .  A
C449        C454   1.399       .  A
C449        F467   1.358       .  S
C450        C455   1.485       .  S
C450        C451   1.404       .  A
C451        C452   1.402       .  A
C451        F456   1.358       .  S
C452        C453   1.412       .  A
C452        F468   1.355       .  S
C453        C454   1.412       .  A
C454        F457   1.358       .  S
C455        C458   1.406       .  A
C455        C462   1.403       .  A
C458        C459   1.404       .  A
C458        F463   1.358       .  S
C459        C460   1.411       .  A
C459        F465   1.355       .  S
C460        C461   1.412       .  A
C461        C462   1.396       .  A
C461        F464   1.358       .  S
C462        F466   1.358       .  S
C469        C470   1.409       .  A
C469        C474   1.398       .  A
C469        F487   1.358       .  S
C470        C475   1.489       .  S
C470        C471   1.409       .  A
C471        C472   1.400       .  A
C471        F476   1.358       .  S
C472        C473   1.403       .  A
C472        F488   1.358       .  S
C473        C474   1.402       .  A
C474        F477   1.354       .  S
C475        C478   1.408       .  A
C475        C482   1.408       .  A
C478        C479   1.398       .  A
C478        F483   1.358       .  S
C479        C480   1.408       .  A
C479        F485   1.358       .  S
C480        C481   1.406       .  A
C481        C482   1.402       .  A
C481        F484   1.357       .  S
C482        F486   1.358       .  S
C489        C490   1.409       .  A
C489        C494   1.399       .  A
C489        F507   1.358       .  S
C490        C495   1.487       .  S
C490        C491   1.406       .  A
C491        C492   1.399       .  A
C491        F496   1.358       .  S
C492        C493   1.409       .  A
C492        F508   1.357       .  S
C493        C494   1.404       .  A
C494        F497   1.358       .  S
C495        C498   1.409       .  A
C495        C502   1.407       .  A
C498        C499   1.403       .  A
C498        F503   1.358       .  S
C499        C500   1.405       .  A
C499        F505   1.358       .  S
C500        C501   1.405       .  A
C501        C502   1.396       .  A
C501        F504   1.358       .  S
C502        F506   1.358       .  S
C509        C510   1.403       .  A
C509        C514   1.405       .  A
C509        F527   1.358       .  S
C510        C515   1.485       .  S
C510        C511   1.402       .  A
C511        C512   1.401       .  A
C511        F516   1.358       .  S
C512        C513   1.412       .  A
C512        F528   1.357       .  S
C513        C514   1.415       .  A
C514        F517   1.355       .  S
C515        C518   1.404       .  A
C515        C522   1.406       .  A
C518        C519   1.400       .  A
C518        F523   1.358       .  S
C519        C520   1.409       .  A
C519        F525   1.358       .  S
C520        C521   1.407       .  A
C521        C522   1.405       .  A
C521        F524   1.357       .  S
C522        F526   1.357       .  S
C529        C530   1.404       .  A
C529        C534   1.396       .  A
C529        F547   1.358       .  S
C530        C535   1.480       .  S
C530        C531   1.406       .  A
C531        C532   1.401       .  A
C531        F536   1.358       .  S
C532        C533   1.407       .  A
C532        F548   1.357       .  S
C533        C534   1.409       .  A
C534        F537   1.358       .  S
C535        C538   1.399       .  A
C535        C542   1.400       .  A
C538        C539   1.397       .  A
C538        F543   1.359       .  S
C539        C540   1.423       .  A
C539        F545   1.350       .  S
C540        C541   1.418       .  A
C541        C542   1.400       .  A
C541        F544   1.358       .  S
C542        F546   1.358       .  S
C549        C550   1.403       .  A
C549        C554   1.398       .  A
C549        F567   1.358       .  S
C550        C555   1.475       .  S
C550        C551   1.400       .  A
C551        C552   1.399       .  A
C551        F556   1.358       .  S
C552        C553   1.414       .  A
C552        F568   1.358       .  S
C553        C554   1.409       .  A
C554        F557   1.356       .  S
C555        C558   1.405       .  A
C555        C562   1.402       .  A
C558        C559   1.402       .  A
C558        F563   1.358       .  S
C559        C560   1.405       .  A
C559        F565   1.357       .  S
C560        C561   1.406       .  A
C561        C562   1.395       .  A
C561        F564   1.358       .  S
C562        F566   1.358       .  S
C569        C570   1.409       .  A
C569        C574   1.400       .  A
C569        F587   1.358       .  S
C570        C575   1.491       .  S
C570        C571   1.410       .  A
C571        C572   1.401       .  A
C571        F576   1.357       .  S
C572        C573   1.402       .  A
C572        F588   1.358       .  S
C573        C574   1.405       .  A
C574        F577   1.358       .  S
C575        C578   1.406       .  A
C575        C582   1.407       .  A
C578        C579   1.399       .  A
C578        F583   1.358       .  S
C579        C580   1.413       .  A
C579        F585   1.358       .  S
C580        C581   1.409       .  A
C581        C582   1.403       .  A
C581        F584   1.354       .  S
C582        F586   1.358       .  S
C589        C590   1.407       .  A
C589        C594   1.399       .  A
C589        F607   1.358       .  S
C590        C595   1.490       .  S
C590        C591   1.408       .  A
C591        C592   1.402       .  A
C591        F596   1.358       .  S
C592        C593   1.407       .  A
C592        F608   1.357       .  S
C593        C594   1.409       .  A
C594        F597   1.358       .  S
C595        C598   1.406       .  A
C595        C602   1.406       .  A
C598        C599   1.400       .  A
C598        F603   1.358       .  S
C599        C600   1.412       .  A
C599        F605   1.358       .  S
C600        C601   1.413       .  A
C601        C602   1.400       .  A
C601        F604   1.355       .  S
C602        F606   1.358       .  S
C609        C610   1.398       .  A
C609        C614   1.396       .  A
C609        F627   1.358       .  S
C610        C615   1.476       .  S
C610        C611   1.400       .  A
C611        C612   1.400       .  A
C611        F616   1.359       .  S
C612        C613   1.421       .  A
C612        F628   1.353       .  S
C613        C614   1.417       .  A
C614        F617   1.358       .  S
C615        C618   1.402       .  A
C615        C622   1.401       .  A
C618        C619   1.399       .  A
C618        F623   1.358       .  S
C619        C620   1.413       .  A
C619        F625   1.355       .  S
C620        C621   1.411       .  A
C621        C622   1.397       .  A
C621        F624   1.358       .  S
C622        F626   1.358       .  S
C629        C630   1.403       .  A
C629        C634   1.398       .  A
C629        F647   1.358       .  S
C630        C635   1.480       .  S
C630        C631   1.405       .  A
C631        C632   1.401       .  A
C631        F636   1.358       .  S
C632        C633   1.407       .  A
C632        F648   1.357       .  S
C633        C634   1.409       .  A
C634        F637   1.358       .  S
C635        C638   1.399       .  A
C635        C642   1.400       .  A
C638        C639   1.399       .  A
C638        F643   1.358       .  S
C639        C640   1.418       .  A
C639        F645   1.358       .  S
C640        C641   1.420       .  A
C641        C642   1.400       .  A
C641        F644   1.353       .  S
C642        F646   1.358       .  S
C649        C650   1.405       .  A
C649        C654   1.396       .  A
C649        F667   1.358       .  S
C650        C655   1.488       .  S
C650        C651   1.409       .  A
C651        C652   1.406       .  A
C651        F656   1.358       .  S
C652        C653   1.407       .  A
C652        F668   1.358       .  S
C653        C654   1.408       .  A
C654        F657   1.358       .  S
C655        C658   1.406       .  A
C655        C662   1.405       .  A
C658        C659   1.405       .  A
C658        F663   1.358       .  S
C659        C660   1.411       .  A
C659        F665   1.357       .  S
C660        C661   1.409       .  A
C661        C662   1.398       .  A
C661        F664   1.357       .  S
C662        F666   1.358       .  S
C669        C670   1.403       .  A
C669        C674   1.397       .  A
C669        F687   1.358       .  S
C670        C675   1.479       .  S
C670        C671   1.403       .  A
C671        C672   1.401       .  A
C671        F676   1.358       .  S
C672        C673   1.410       .  A
C672        F688   1.356       .  S
C673        C674   1.409       .  A
C674        F677   1.358       .  S
C675        C678   1.405       .  A
C675        C682   1.405       .  A
C678        C679   1.401       .  A
C678        F683   1.358       .  S
C679        C680   1.404       .  A
C679        F685   1.356       .  S
C680        C681   1.403       .  A
C681        C682   1.398       .  A
C681        F684   1.358       .  S
C682        F686   1.358       .  S
C689        C690   1.409       .  A
C689        C694   1.400       .  A
C689        F707   1.358       .  S
C690        C695   1.484       .  S
C690        C691   1.406       .  A
C691        C692   1.395       .  A
C691        F696   1.358       .  S
C692        C693   1.404       .  A
C692        F708   1.358       .  S
C693        C694   1.403       .  A
C694        F697   1.358       .  S
C695        C698   1.405       .  A
C695        C702   1.408       .  A
C698        C699   1.398       .  A
C698        F703   1.358       .  S
C699        C700   1.409       .  A
C699        F705   1.357       .  S
C700        C701   1.404       .  A
C701        C702   1.398       .  A
C701        F704   1.358       .  S
C702        F706   1.358       .  S
C709        C710   1.407       .  A
C709        C714   1.400       .  A
C709        F727   1.358       .  S
C710        C715   1.489       .  S
C710        C711   1.406       .  A
C711        C712   1.402       .  A
C711        F716   1.358       .  S
C712        C713   1.410       .  A
C712        F728   1.358       .  S
C713        C714   1.408       .  A
C714        F717   1.357       .  S
C715        C718   1.409       .  A
C715        C722   1.407       .  A
C718        C719   1.403       .  A
C718        F723   1.358       .  S
C719        C720   1.406       .  A
C719        F725   1.358       .  S
C720        C721   1.405       .  A
C721        C722   1.398       .  A
C721        F724   1.358       .  S
C722        F726   1.358       .  S
C729        C730   1.406       .  A
C729        C734   1.400       .  A
C729        F747   1.357       .  S
C730        C735   1.481       .  S
C730        C731   1.404       .  A
C731        C732   1.398       .  A
C731        F736   1.358       .  S
C732        C733   1.409       .  A
C732        F748   1.358       .  S
C733        C734   1.405       .  A
C734        F737   1.357       .  S
C735        C738   1.403       .  A
C735        C742   1.404       .  A
C738        C739   1.398       .  A
C738        F743   1.358       .  S
C739        C740   1.411       .  A
C739        F745   1.356       .  S
C740        C741   1.409       .  A
C741        C742   1.401       .  A
C741        F744   1.358       .  S
C742        F746   1.358       .  S
C749        C750   1.400       .  A
C749        C754   1.398       .  A
C749        F767   1.358       .  S
C750        C755   1.475       .  S
C750        C751   1.398       .  A
C751        C752   1.396       .  A
C751        F756   1.358       .  S
C752        C753   1.417       .  A
C752        F768   1.358       .  S
C753        C754   1.419       .  A
C754        F757   1.353       .  S
C755        C758   1.405       .  A
C755        C762   1.401       .  A
C758        C759   1.401       .  A
C758        F763   1.358       .  S
C759        C760   1.406       .  A
C759        F765   1.357       .  S
C760        C761   1.410       .  A
C761        C762   1.395       .  A
C761        F764   1.358       .  S
C762        F766   1.358       .  S
C769        C770   1.409       .  A
C769        C774   1.402       .  A
C769        F787   1.358       .  S
C770        C775   1.487       .  S
C770        C771   1.408       .  A
C771        C772   1.396       .  A
C771        F776   1.358       .  S
C772        C773   1.404       .  A
C772        F788   1.358       .  S
C773        C774   1.405       .  A
C774        F777   1.358       .  S
C775        C778   1.407       .  A
C775        C782   1.406       .  A
C778        C779   1.402       .  A
C778        F783   1.358       .  S
C779        C780   1.411       .  A
C779        F785   1.357       .  S
C780        C781   1.407       .  A
C781        C782   1.398       .  A
C781        F784   1.358       .  S
C782        F786   1.358       .  S
C789        C790   1.407       .  A
C789        C794   1.402       .  A
C789        F807   1.358       .  S
C790        C795   1.484       .  S
C790        C791   1.405       .  A
C791        C792   1.396       .  A
C791        F796   1.358       .  S
C792        C793   1.409       .  A
C792        F808   1.357       .  S
C793        C794   1.409       .  A
C794        F797   1.358       .  S
C795        C798   1.407       .  A
C795        C802   1.408       .  A
C798        C799   1.398       .  A
C798        F803   1.358       .  S
C799        C800   1.406       .  A
C799        F805   1.358       .  S
C800        C801   1.403       .  A
C801        C802   1.400       .  A
C801        F804   1.358       .  S
C802        F806   1.358       .  S
C809        C810   1.409       .  A
C809        C814   1.405       .  A
C809        F827   1.358       .  S
C810        C815   1.489       .  S
C810        C811   1.407       .  A
C811        C812   1.399       .  A
C811        F816   1.358       .  S
C812        C813   1.403       .  A
C812        F828   1.358       .  S
C813        C814   1.405       .  A
C814        F817   1.358       .  S
C815        C818   1.409       .  A
C815        C822   1.408       .  A
C818        C819   1.401       .  A
C818        F823   1.358       .  S
C819        C820   1.403       .  A
C819        F825   1.358       .  S
C820        C821   1.403       .  A
C821        C822   1.402       .  A
C821        F824   1.358       .  S
C822        F826   1.358       .  S
C829        C830   1.410       .  A
C829        C834   1.404       .  A
C829        F847   1.358       .  S
C830        C835   1.490       .  S
C830        C831   1.407       .  A
C831        C832   1.398       .  A
C831        F836   1.358       .  S
C832        C833   1.404       .  A
C832        F848   1.358       .  S
C833        C834   1.403       .  A
C834        F837   1.358       .  S
C835        C838   1.406       .  A
C835        C842   1.407       .  A
C838        C839   1.402       .  A
C838        F843   1.357       .  S
C839        C840   1.410       .  A
C839        F845   1.357       .  S
C840        C841   1.411       .  A
C841        C842   1.399       .  A
C841        F844   1.358       .  S
C842        F846   1.358       .  S
C849        C850   1.403       .  A
C849        C854   1.399       .  A
C849        F867   1.358       .  S
C850        C855   1.479       .  S
C850        C851   1.402       .  A
C851        C852   1.398       .  A
C851        F856   1.358       .  S
C852        C853   1.412       .  A
C852        F868   1.358       .  S
C853        C854   1.412       .  A
C854        F857   1.355       .  S
C855        C858   1.400       .  A
C855        C862   1.401       .  A
C858        C859   1.399       .  A
C858        F863   1.358       .  S
C859        C860   1.418       .  A
C859        F865   1.357       .  S
C860        C861   1.417       .  A
C861        C862   1.398       .  A
C861        F864   1.356       .  S
C862        F866   1.358       .  S
C869        C870   1.402       .  A
C869        C874   1.401       .  A
C869        F887   1.358       .  S
C870        C875   1.479       .  S
C870        C871   1.401       .  A
C871        C872   1.399       .  A
C871        F876   1.358       .  S
C872        C873   1.414       .  A
C872        F888   1.355       .  S
C873        C874   1.413       .  A
C874        F877   1.358       .  S
C875        C878   1.400       .  A
C875        C882   1.400       .  A
C878        C879   1.400       .  A
C878        F883   1.358       .  S
C879        C880   1.417       .  A
C879        F885   1.357       .  S
C880        C881   1.419       .  A
C881        C882   1.399       .  A
C881        F884   1.355       .  S
C882        F886   1.358       .  S
C889        C890   1.403       .  A
C889        C894   1.399       .  A
C889        F907   1.358       .  S
C890        C895   1.482       .  S
C890        C891   1.405       .  A
C891        C892   1.404       .  A
C891        F896   1.358       .  S
C892        C893   1.408       .  A
C892        F908   1.358       .  S
C893        C894   1.408       .  A
C894        F897   1.358       .  S
C895        C898   1.405       .  A
C895        C902   1.404       .  A
C898        C899   1.401       .  A
C898        F903   1.358       .  S
C899        C900   1.405       .  A
C899        F905   1.358       .  S
C900        C901   1.408       .  A
C901        C902   1.400       .  A
C901        F904   1.358       .  S
C902        F906   1.358       .  S
C909        C910   1.404       .  A
C909        C914   1.399       .  A
C909        F927   1.358       .  S
C910        C915   1.481       .  S
C910        C911   1.407       .  A
C911        C912   1.401       .  A
C911        F916   1.358       .  S
C912        C913   1.403       .  A
C912        F928   1.356       .  S
C913        C914   1.406       .  A
C914        F917   1.358       .  S
C915        C918   1.405       .  A
C915        C922   1.403       .  A
C918        C919   1.400       .  A
C918        F923   1.358       .  S
C919        C920   1.408       .  A
C919        F925   1.358       .  S
C920        C921   1.410       .  A
C921        C922   1.400       .  A
C921        F924   1.357       .  S
C922        F926   1.358       .  S
C929        C930   1.403       .  A
C929        C934   1.395       .  A
C929        F947   1.358       .  S
C930        C935   1.480       .  S
C930        C931   1.407       .  A
C931        C932   1.404       .  A
C931        F936   1.358       .  S
C932        C933   1.406       .  A
C932        F948   1.358       .  S
C933        C934   1.405       .  A
C934        F937   1.358       .  S
C935        C938   1.405       .  A
C935        C942   1.403       .  A
C938        C939   1.403       .  A
C938        F943   1.358       .  S
C939        C940   1.410       .  A
C939        F945   1.356       .  S
C940        C941   1.410       .  A
C941        C942   1.395       .  A
C941        F944   1.358       .  S
C942        F946   1.358       .  S
