geometry optimzed in LAMMPS
_audit_creation_date              2020-11-30 
_audit_creation_method            'lammps2cif' 
_symmetry_space_group_name_H-M    'P1' 
_symmetry_Int_Tables_number       1 
_symmetry_cell_setting            triclinic 
loop_ 
_symmetry_equiv_pos_as_xyz 
  x,y,z 
_cell_length_a                    26.53166317 
_cell_length_b                    30.920496862128175 
_cell_length_c                    43.729430129216574 
_cell_angle_alpha                 93.68338402933644 
_cell_angle_beta                  94.09044551897411 
_cell_angle_gamma                 68.53523115054752 
loop_ 
_atom_site_label 
_atom_site_type_symbol 
_atom_site_fract_x 
_atom_site_fract_y 
_atom_site_fract_z 
_atom_site_charge 
O1          O  0.14571410  0.19791316  0.01497393    -0.82100
O2          O  0.89415305  0.22791797  0.00776255    -0.66800
O3          O  0.03999662  0.20905911  0.49119057    -1.13400
C4          C  0.98250392  0.37140797  0.49382758     1.04700
O5          O  0.85219330  0.29300988  0.48285649    -0.80000
O6          O  0.92866646  0.29338831  0.44521811    -0.67600
Ni7        Ni  0.09658747  0.16495773  0.01549326     1.34900
C8          C  0.97685228  0.28053408  0.43657945     0.83500
O9          O  0.97776015  0.15403016  0.99222841    -0.80600
O10         O  0.05780744  0.12313406  0.01761079    -0.90900
C11         C  0.85154390  0.25795307  0.49628361     0.83100
O12         O  0.06921765  0.19781380  0.05270146    -0.69100
O13         O  0.93983893  0.36808982  0.48038706    -0.88300
C14         C  0.02108962  0.21040766  0.06139484     0.83900
C15         C  0.01524724  0.11979356  0.00405185     1.05400
H16         H  0.95213232  0.29152809  0.02812967     0.37300
O17         O  0.95780807  0.28209836  0.00676581    -1.11000
O18         O  0.01642600  0.28121077  0.45464594    -0.67700
Ni19       Ni  0.03070157  0.27328984  0.49824495     1.26300
O20         O  0.98151244  0.20977497  0.04332024    -0.67900
O21         O  0.02000732  0.33718161  0.50565839    -0.80200
C22         C  0.14631802  0.23325223  0.00188039     0.83300
O23         O  0.10372240  0.26331309  0.49039539    -0.65000
Ni24       Ni  0.90118988  0.32613713  0.48242351     1.27400
Ni25       Ni  0.96710753  0.21788119  0.99973689     1.26100
H26         H  0.04564775  0.19962827  0.46982313     0.37800
O27         O  0.14498838  0.19913543  0.26573901    -0.82100
O28         O  0.89364880  0.22876204  0.25792657    -0.66800
O29         O  0.03964341  0.20937057  0.24132820    -1.13400
C30         C  0.98237099  0.37170876  0.24312006     1.04700
O31         O  0.85188022  0.29334582  0.23248396    -0.80000
O32         O  0.92852912  0.29326143  0.19479183    -0.67600
Ni33       Ni  0.09631989  0.16560613  0.26581893     1.34900
C34         C  0.97673802  0.28026385  0.18616622     0.83500
O35         O  0.97719213  0.15452827  0.24292423    -0.80600
O36         O  0.05796119  0.12338950  0.26759446    -0.90900
C37         C  0.85110755  0.25856564  0.24620215     0.83100
O38         O  0.06866902  0.19799405  0.30309507    -0.69100
O39         O  0.93964552  0.36838020  0.22973989    -0.88300
C40         C  0.02044031  0.21110590  0.31168386     0.83900
C41         C  0.01499589  0.12021351  0.25447074     1.05400
H42         H  0.95183813  0.29246059  0.27777999     0.37300
O43         O  0.95750982  0.28269782  0.25646067    -1.11000
O44         O  0.01629646  0.28097805  0.20421722    -0.67700
Ni45       Ni  0.03047150  0.27360197  0.24785590     1.26300
O46         O  0.98072630  0.21110852  0.29353026    -0.67900
O47         O  0.01996622  0.33748496  0.25487878    -0.80200
C48         C  0.14586617  0.23386168  0.25201166     0.83300
O49         O  0.10350614  0.26328062  0.23983515    -0.67400
Ni50       Ni  0.90095454  0.32642858  0.23189714     1.27400
Ni51       Ni  0.96667507  0.21844493  0.24990658     1.26100
H52         H  0.04530038  0.19962000  0.22000830     0.37800
O53         O  0.64493770  0.20017120  0.01765662    -0.82100
O54         O  0.39362517  0.22935398  0.00894283    -0.66800
O55         O  0.53967824  0.21059117  0.49301119    -1.13400
C56         C  0.48186376  0.37309341  0.49564535     1.04700
O57         O  0.35192061  0.29415028  0.48373592    -0.80000
O58         O  0.42824292  0.29601329  0.44661172    -0.67600
Ni59       Ni  0.59636904  0.16649557  0.01730444     1.34900
C60         C  0.47655610  0.28270773  0.43812594     0.83500
O61         O  0.47736928  0.15552097  0.99397353    -0.80600
O62         O  0.55810933  0.12417446  0.01862971    -0.90900
C63         C  0.35120845  0.25895278  0.49696175     0.83100
O64         O  0.56850914  0.19829261  0.05465620    -0.69100
O65         O  0.43880777  0.37005453  0.48258395    -0.88300
C66         C  0.52015073  0.21169054  0.06306816     0.83900
C67         C  0.51511007  0.12114030  0.00547564     1.05400
H68         H  0.45156018  0.29309082  0.02961146     0.37300
O69         O  0.45727880  0.28364658  0.00824798    -1.11000
O70         O  0.51632434  0.28245242  0.45632186    -0.67700
Ni71       Ni  0.53028619  0.27481752  0.49990552     1.26300
O72         O  0.48047164  0.21175928  0.04486426    -0.67900
O73         O  0.51964647  0.33872130  0.50714172    -0.80200
C74         C  0.64577006  0.23502294  0.00406390     0.83300
O75         O  0.60334794  0.26467243  0.49210693    -0.67400
Ni76       Ni  0.40052750  0.32777826  0.48401196     1.27400
Ni77       Ni  0.46667660  0.21939974  0.00128166     1.26100
H78         H  0.54545727  0.20111257  0.47166376     0.37800
O79         O  0.64449388  0.20077669  0.26812117    -0.82100
O80         O  0.39315866  0.22998715  0.25935608    -0.66800
O81         O  0.53940420  0.21047638  0.24324575    -1.13400
C82         C  0.48132465  0.37319610  0.24489297     1.04700
O83         O  0.35208477  0.29331994  0.23262438    -0.80000
O84         O  0.42831348  0.29601118  0.19589130    -0.67600
Ni85       Ni  0.59616023  0.16681263  0.26778313     1.34900
C86         C  0.47675238  0.28210869  0.18756321     0.83500
O87         O  0.47695548  0.15561283  0.24496753    -0.80600
O88         O  0.55821708  0.12421066  0.26911110    -0.90900
C89         C  0.35099730  0.25894339  0.24667388     0.83100
O90         O  0.56808272  0.19872099  0.30509288    -0.69100
O91         O  0.43795132  0.37027963  0.23217734    -0.88300
C92         C  0.51966907  0.21257063  0.31347782     0.83900
C93         C  0.51499713  0.12119794  0.25623408     1.05400
H94         H  0.45115446  0.29379895  0.27908970     0.37300
O95         O  0.45694624  0.28388063  0.25780235    -1.11000
O96         O  0.51656027  0.28140210  0.20583837    -0.67700
Ni97       Ni  0.53004341  0.27477808  0.24947735     1.26300
O98         O  0.47987537  0.21299000  0.29526291    -0.67900
O99         O  0.51943834  0.33874542  0.25607381    -0.80200
C100        C  0.64547598  0.23518565  0.25405881     0.83300
O101        O  0.60316248  0.26438591  0.24168850    -0.67400
Ni102      Ni  0.40016332  0.32754165  0.23327237     1.27400
Ni103      Ni  0.46631800  0.21958470  0.25159494     1.26100
H104        H  0.54518485  0.20056580  0.22195371     0.37800
O105        O  0.03624204  0.41853659  0.49774693    -0.75700
O106        O  0.05162690  0.03731942  0.00312151    -0.75700
O107        O  0.04370613  0.47844478  0.04408331    -0.75800
O108        O  0.04405798  0.47741487  0.45616017    -0.75800
O109        O  0.95417998  0.51270564  0.45362729    -0.75700
O110        O  0.95384208  0.01384817  0.04154589    -0.75700
O111        O  0.96159427  0.07263798  0.99993987    -0.75700
O112        O  0.94620883  0.45388483  0.99464191    -0.75800
Ni113      Ni  0.04710664  0.47668371  0.50031090     1.25400
Ni114      Ni  0.95076554  0.01450225  0.99739937     1.25400
C115        C  0.98865108  0.41674578  0.49540235     0.86500
C116        C  0.00916782  0.07444414  0.00236455     0.86400
C117        C  0.99871056  0.99629839  0.05737715     0.86500
C118        C  0.99918544  0.49496825  0.44033180     0.86600
O119        O  0.05141570  0.03771527  0.25344416    -0.75700
O120        O  0.03605456  0.41890032  0.24732215    -0.75700
O121        O  0.04388176  0.47833356  0.20617417    -0.75800
O122        O  0.04356239  0.47824565  0.29402710    -0.75800
O123        O  0.95368529  0.01353640  0.29154483    -0.75700
O124        O  0.95400679  0.51365879  0.20365644    -0.75700
O125        O  0.94602477  0.45421557  0.24421635    -0.75700
O126        O  0.96137941  0.07300331  0.25036198    -0.75800
Ni127      Ni  0.04692009  0.47706066  0.25027930     1.25400
Ni128      Ni  0.95058139  0.01484109  0.24741322     1.25400
C129        C  0.00894314  0.07483726  0.25278881     0.86500
C130        C  0.98847121  0.41708293  0.24484354     0.86400
C131        C  0.99903194  0.49606434  0.19036413     0.86500
C132        C  0.99856872  0.49581441  0.30734118     0.86600
O133        O  0.55126854  0.03871700  0.50460747    -0.75700
O134        O  0.53568729  0.42009284  0.49947348    -0.75700
O135        O  0.54343297  0.47879402  0.45776934    -0.75800
O136        O  0.54326560  0.48003719  0.04572149    -0.75800
O137        O  0.45340986  0.51551366  0.04320367    -0.75700
O138        O  0.45357070  0.51422229  0.45528223    -0.75700
O139        O  0.44566381  0.45552931  0.49640661    -0.75700
O140        O  0.46124440  0.07417266  0.00150999    -0.75800
Ni141      Ni  0.54661067  0.47817031  0.50192642     1.25400
Ni142      Ni  0.45028195  0.51610281  0.49906316     1.25400
C143        C  0.50886981  0.07587717  0.00383976     0.86500
C144        C  0.48807480  0.41837168  0.49719020     0.86400
C145        C  0.49853854  0.49637543  0.44196253     0.86500
C146        C  0.49826834  0.49788363  0.05902419     0.86600
O147        O  0.53519364  0.42014941  0.24898361    -0.75700
O148        O  0.55119031  0.03866758  0.25507615    -0.75700
O149        O  0.54299661  0.47935124  0.29566915    -0.75800
O150        O  0.54323890  0.47939132  0.20779962    -0.75800
O151        O  0.45339734  0.51495935  0.20531517    -0.75700
O152        O  0.45315314  0.01492134  0.29320209    -0.75700
O153        O  0.46118438  0.07419339  0.25202946    -0.75700
O154        O  0.44518734  0.45569242  0.24594984    -0.75800
Ni155      Ni  0.54634687  0.47814437  0.25191448     1.25400
Ni156      Ni  0.45003839  0.01619394  0.24908634     1.25400
C157        C  0.48754621  0.41848935  0.24658349     0.86500
C158        C  0.50882245  0.07587133  0.25447417     0.86400
C159        C  0.49801128  0.49705166  0.30898702     0.86500
C160        C  0.49838913  0.49721367  0.19200119     0.86600
C161        C  0.44994077  0.01779642  0.39043098    -0.14600
C162        C  0.49843191  0.49627876  0.40792033     0.07500
C163        C  0.54670393  0.47489810  0.39252285    -0.14600
C164        C  0.54651265  0.47512104  0.36048757    -0.14600
C165        C  0.49804647  0.49674519  0.34300567     0.07500
C166        C  0.44975020  0.01802302  0.35839725    -0.14600
H167        H  0.41199838  0.03466645  0.40149933     0.11500
H168        H  0.58474993  0.45792571  0.40522299     0.11500
H169        H  0.58445772  0.45827532  0.34941808     0.11500
H170        H  0.41170748  0.03502129  0.34570033     0.11500
C171        C  0.44999012  0.01959588  0.10843106    -0.14600
C172        C  0.49825354  0.49791038  0.09306115     0.07500
C173        C  0.54659119  0.47599769  0.11057200    -0.14600
C174        C  0.54666576  0.47575260  0.14260122    -0.14600
C175        C  0.49840577  0.49741533  0.15797300     0.07500
C176        C  0.45006534  0.01935326  0.14046464    -0.14600
H177        H  0.41204840  0.03685366  0.09571213     0.11500
H178        H  0.58450376  0.45884214  0.09952353     0.11500
H179        H  0.58460252  0.45845808  0.15531376     0.11500
H180        H  0.41214775  0.03647336  0.15151474     0.11500
C181        C  0.04746372  0.97401094  0.39089920    -0.14600
C182        C  0.99911651  0.49496408  0.40629124     0.07500
C183        C  0.95053873  0.51613465  0.38879424    -0.14600
C184        C  0.95030879  0.51640088  0.35676133    -0.14600
C185        C  0.99865567  0.49551365  0.34136889     0.07500
C186        C  0.04723349  0.97427604  0.35885950    -0.14600
H187        H  0.08558856  0.95733761  0.40360395     0.11500
H188        H  0.91253844  0.53267788  0.39985608     0.11500
H189        H  0.91218456  0.53310186  0.34406400     0.11500
H190        H  0.08523375  0.95775896  0.34779280     0.11500
C191        C  0.95047747  0.01800015  0.10679284    -0.14600
C192        C  0.99875647  0.49648485  0.09142004     0.07500
C193        C  0.04721216  0.47497910  0.10893873    -0.14600
C194        C  0.04736280  0.47488819  0.14097715    -0.14600
C195        C  0.99905666  0.49629070  0.15634401     0.07500
C196        C  0.95062734  0.51790884  0.13883295    -0.14600
H197        H  0.91245889  0.03498255  0.09407041     0.11500
H198        H  0.08515837  0.45801586  0.09788963     0.11500
H199        H  0.08537926  0.45788227  0.15369604     0.11500
H200        H  0.91268056  0.03484924  0.14988408     0.11500
C201        C  0.45509042  0.25320794  0.35413860    -0.14600
C202        C  0.50868096  0.22963299  0.34553116     0.07500
C203        C  0.55156116  0.22462824  0.36744751    -0.14600
C204        C  0.54107935  0.24264883  0.39737391    -0.14600
C205        C  0.48749046  0.26608167  0.40600740     0.07500
C206        C  0.44460609  0.27121831  0.38407369    -0.14600
H207        H  0.42116410  0.25816071  0.33766873     0.11500
H208        H  0.59327492  0.20674533  0.36150519     0.11500
H209        H  0.57500916  0.23768177  0.41384389     0.11500
H210        H  0.40289720  0.28908976  0.39003142     0.11500
C211        C  0.45556677  0.25329457  0.10345155    -0.14600
C212        C  0.50908059  0.22863812  0.09510164     0.07500
C213        C  0.55185484  0.22252257  0.11723917    -0.14600
C214        C  0.54132616  0.24059676  0.14714641    -0.14600
C215        C  0.48780727  0.26522627  0.15550904     0.07500
C216        C  0.44503584  0.27138284  0.13335924    -0.14600
H217        H  0.42177159  0.25911478  0.08678154     0.11500
H218        H  0.59349988  0.20373426  0.11147785     0.11500
H219        H  0.57513685  0.23477948  0.16380491     0.11500
H220        H  0.40339053  0.29017656  0.13911635     0.11500
C221        C  0.79462395  0.21781211  0.26613115    -0.14600
C222        C  0.79849461  0.25261368  0.24830330     0.07500
C223        C  0.75149878  0.28180556  0.23254015    -0.14600
C224        C  0.70187008  0.27627003  0.23449337    -0.14600
C225        C  0.69800955  0.24140707  0.25226315     0.07500
C226        C  0.74497593  0.21228934  0.26809740    -0.14600
H227        H  0.82995668  0.19485560  0.27867041     0.11500
H228        H  0.75303269  0.30889237  0.21853437     0.11500
H229        H  0.66656239  0.29921037  0.22192772     0.11500
H230        H  0.74344076  0.18517246  0.28207428     0.11500
C231        C  0.24438767  0.21282194  0.26787988    -0.14600
C232        C  0.19833548  0.24027335  0.25056293     0.07500
C233        C  0.20297526  0.27387040  0.23192360    -0.14600
C234        C  0.25250450  0.27985332  0.23062873    -0.14600
C235        C  0.29855425  0.25241155  0.24796131     0.07500
C236        C  0.29389965  0.21881552  0.26659507    -0.14600
H237        H  0.24216983  0.18678594  0.28260221     0.11500
H238        H  0.16836773  0.29546052  0.21820204     0.11500
H239        H  0.25471320  0.30592596  0.21593594     0.11500
H240        H  0.32847799  0.19724837  0.28034520     0.11500
C241        C  0.79482306  0.21765744  0.01646846    -0.14600
C242        C  0.79893648  0.25203657  0.49834418     0.07500
C243        C  0.75213825  0.28096020  0.48228633    -0.14600
C244        C  0.70243564  0.27559484  0.48425223    -0.14600
C245        C  0.69832793  0.24115133  0.00230903     0.07500
C246        C  0.74509479  0.21229678  0.01844186    -0.14600
H247        H  0.83000534  0.19495778  0.02925451     0.11500
H248        H  0.75389155  0.30769849  0.46803338     0.11500
H249        H  0.66728186  0.29828704  0.47144332     0.11500
H250        H  0.74332670  0.18553650  0.03267006     0.11500
C251        C  0.24618338  0.20901398  0.51503897    -0.14600
C252        C  0.19881149  0.23962413  0.00036931     0.07500
C253        C  0.20211108  0.27648829  0.98444835    -0.14600
C254        C  0.25153230  0.28269360  0.98332002    -0.14600
C255        C  0.29885449  0.25220521  0.49809916     0.07500
C256        C  0.29559749  0.21522851  0.51391962    -0.14600
H257        H  0.24511737  0.18028147  0.52755369     0.11500
H258        H  0.16647662  0.30062902  0.97282810     0.11500
H259        H  0.25259803  0.31144423  0.97082641     0.11500
H260        H  0.33121981  0.19110003  0.52555835     0.11500
C261        C  0.04121037  0.24623941  0.39473557    -0.14600
C262        C  0.98779699  0.26363394  0.40445790     0.07500
C263        C  0.94541280  0.26265134  0.38359344    -0.14600
C264        C  0.95616873  0.24486913  0.35362903    -0.14600
C265        C  0.00956369  0.22761512  0.34387575     0.07500
C266        C  0.05196944  0.22844788  0.36477165    -0.14600
H267        H  0.07487116  0.24611033  0.41032170     0.11500
H268        H  0.90386663  0.27551034  0.39040685     0.11500
H269        H  0.92250281  0.24499162  0.33804863     0.11500
H270        H  0.09351482  0.21559069  0.35795745     0.11500
C271        C  0.95775422  0.23933917  0.10421044    -0.14600
C272        C  0.01018148  0.22694654  0.09358071     0.07500
C273        C  0.05132183  0.23271933  0.11355993    -0.14600
C274        C  0.04025207  0.25060958  0.14347998    -0.14600
C275        C  0.98777383  0.26318606  0.15407388     0.07500
C276        C  0.94668237  0.25723602  0.13413316    -0.14600
H277        H  0.92509123  0.23543303  0.08936939     0.11500
H278        H  0.09203509  0.22382023  0.10602125     0.11500
H279        H  0.07291760  0.25452424  0.15831387     0.11500
H280        H  0.90596888  0.26614756  0.14167381     0.11500
O281        O  0.14571725  0.19791283  0.51497508    -0.82100
O282        O  0.89415624  0.22791681  0.50776247    -0.66800
O283        O  0.03999306  0.20906040  0.99119011    -1.13400
C284        C  0.98249940  0.37140950  0.99382764     1.04700
O285        O  0.85219026  0.29300964  0.98285517    -0.80000
O286        O  0.92866356  0.29338987  0.94521750    -0.67600
Ni287      Ni  0.09659107  0.16495678  0.51549389     1.34900
C288        C  0.97684950  0.28053568  0.93657905     0.83500
O289        O  0.97776373  0.15402886  0.49222887    -0.80600
O290        O  0.05781147  0.12313273  0.51761092    -0.90900
C291        C  0.85154079  0.25795345  0.99628302     0.83100
O292        O  0.06922056  0.19781237  0.55270213    -0.69100
O293        O  0.93983429  0.36809135  0.98038729    -0.88300
C294        C  0.02109240  0.21040630  0.56139534     0.83900
C295        C  0.01525119  0.11979221  0.50405210     1.05400
H296        H  0.95213623  0.29152685  0.52812989     0.37300
O297        O  0.95781176  0.28209719  0.50676612    -1.11000
O298        O  0.01642303  0.28121214  0.95464574    -0.67700
Ni299      Ni  0.03069792  0.27329120  0.99824477     1.26300
O300        O  0.98151532  0.20977389  0.54332054    -0.67900
O301        O  0.02000317  0.33718309  0.00565824    -0.80200
C302        C  0.14632129  0.23325140  0.50188094     0.83300
O303        O  0.10371895  0.26331466  0.99039555    -0.65000
Ni304      Ni  0.90118603  0.32613791  0.98242300     1.27400
Ni305      Ni  0.96711098  0.21787997  0.49973718     1.26100
H306        H  0.04564400  0.19962974  0.96982263     0.37800
O307        O  0.14498858  0.19913500  0.76573918    -0.82100
O308        O  0.89364887  0.22876150  0.75792565    -0.66800
O309        O  0.03964359  0.20937068  0.74132837    -1.13400
C310        C  0.98237094  0.37170868  0.74312038     1.04700
O311        O  0.85188007  0.29334634  0.73248408    -0.80000
O312        O  0.92853011  0.29326003  0.69479198    -0.67600
Ni313      Ni  0.09631965  0.16560614  0.76581924     1.34900
C314        C  0.97673904  0.28026305  0.68616656     0.83500
O315        O  0.97719260  0.15452808  0.74292350    -0.80600
O316        O  0.05796056  0.12338978  0.76759487    -0.90900
C317        C  0.85110752  0.25856563  0.74620172     0.83100
O318        O  0.06866824  0.19799484  0.80309508    -0.69100
O319        O  0.93964648  0.36837961  0.72973918    -0.88300
C320        C  0.02043939  0.21110646  0.81168369     0.83900
C321        C  0.01499588  0.12021349  0.75447051     1.05400
H322        H  0.95183731  0.29246045  0.77777997     0.37300
O323        O  0.95750955  0.28269774  0.75646070    -1.11000
O324        O  0.01629692  0.28097841  0.70421770    -0.67700
Ni325      Ni  0.03047130  0.27360209  0.74785647     1.26300
O326        O  0.98072584  0.21110813  0.79352997    -0.67900
O327        O  0.01996552  0.33748514  0.75487981    -0.80200
C328        C  0.14586618  0.23386173  0.75201226     0.83300
O329        O  0.10350599  0.26328109  0.73983620    -0.67400
Ni330      Ni  0.90095495  0.32642845  0.73189680     1.27400
Ni331      Ni  0.96667519  0.21844478  0.74990623     1.26100
H332        H  0.04530093  0.19962031  0.72000850     0.37800
O333        O  0.64494016  0.20017178  0.51765711    -0.82100
O334        O  0.39362795  0.22935409  0.50894296    -0.66800
O335        O  0.53967544  0.21059113  0.99301112    -1.13400
C336        C  0.48186097  0.37309322  0.99564535     1.04700
O337        O  0.35191815  0.29414981  0.98373539    -0.80000
O338        O  0.42824069  0.29601283  0.94661144    -0.67600
Ni339      Ni  0.59637173  0.16649593  0.51730479     1.34900
C340        C  0.47655392  0.28270753  0.93812580     0.83500
O341        O  0.47737215  0.15552101  0.49397375    -0.80600
O342        O  0.55811227  0.12417462  0.51862992    -0.90900
C343        C  0.35120583  0.25895243  0.99696127     0.83100
O344        O  0.56851144  0.19829321  0.55465647    -0.69100
O345        O  0.43880524  0.37005415  0.98258369    -0.88300
C346        C  0.52015296  0.21169116  0.56306831     0.83900
C347        C  0.51511308  0.12114038  0.50547585     1.05400
H348        H  0.45156309  0.29309090  0.52961162     0.37300
O349        O  0.45728159  0.28364673  0.50824810    -1.11000
O350        O  0.51632188  0.28245261  0.95632183    -0.67700
Ni351      Ni  0.53028341  0.27481747  0.99990555     1.26300
O352        O  0.48047412  0.21175955  0.54486435    -0.67900
O353        O  0.51964356  0.33872124  0.00714190    -0.80200
C354        C  0.64577271  0.23502320  0.50406409     0.83300
O355        O  0.60334515  0.26467252  0.99210712    -0.67400
Ni356      Ni  0.40052493  0.32777789  0.98401160     1.27400
Ni357      Ni  0.46667936  0.21939986  0.50128175     1.26100
H358        H  0.54545423  0.20111274  0.97166379     0.37800
O359        O  0.64449358  0.20077732  0.76812136    -0.82100
O360        O  0.39315887  0.22998684  0.75935553    -0.66800
O361        O  0.53940427  0.21047678  0.74324570    -1.13400
C362        C  0.48132435  0.37319639  0.74489319     1.04700
O363        O  0.35208462  0.29332021  0.73262442    -0.80000
O364        O  0.42831374  0.29601113  0.69589131    -0.67600
Ni365      Ni  0.59616016  0.16681308  0.76778318     1.34900
C366        C  0.47675268  0.28210919  0.68756331     0.83500
O367        O  0.47695604  0.15561282  0.74496699    -0.80600
O368        O  0.55821721  0.12421093  0.76911103    -0.90900
C369        C  0.35099734  0.25894338  0.74667371     0.83100
O370        O  0.56808236  0.19872128  0.80509294    -0.69100
O371        O  0.43795135  0.37027974  0.73217722    -0.88300
C372        C  0.51966865  0.21257051  0.81347773     0.83900
C373        C  0.51499751  0.12119802  0.75623378     1.05400
H374        H  0.45115409  0.29379887  0.77908972     0.37300
O375        O  0.45694605  0.28388073  0.75780237    -1.11000
O376        O  0.51656029  0.28140282  0.70583862    -0.67700
Ni377      Ni  0.53004318  0.27477846  0.74947756     1.26300
O378        O  0.47987524  0.21298966  0.79526263    -0.67900
O379        O  0.51943783  0.33874580  0.75607428    -0.80200
C380        C  0.64547567  0.23518626  0.75405898     0.83300
O381        O  0.60316213  0.26438656  0.74168874    -0.67400
Ni382      Ni  0.40016328  0.32754179  0.73327231     1.27400
Ni383      Ni  0.46631818  0.21958474  0.75159465     1.26100
H384        H  0.54518512  0.20056634  0.72195367     0.37800
O385        O  0.03623738  0.41853824  0.99774692    -0.75700
O386        O  0.05163124  0.03731794  0.50312167    -0.75700
O387        O  0.04371068  0.47844282  0.54408345    -0.75800
O388        O  0.04405346  0.47741638  0.95616010    -0.75800
O389        O  0.95417546  0.51270731  0.95362713    -0.75700
O390        O  0.95384674  0.01384632  0.54154604    -0.75700
O391        O  0.96159860  0.07263637  0.49994012    -0.75700
O392        O  0.94621349  0.45388318  0.49464196    -0.75800
Ni393      Ni  0.04710216  0.47668530  0.00031079     1.25400
Ni394      Ni  0.95077017  0.01450052  0.49739957     1.25400
C395        C  0.98864642  0.41674741  0.99540237     0.86500
C396        C  0.00917207  0.07444265  0.50236476     0.86400
C397        C  0.99871515  0.99629629  0.55737730     0.86500
C398        C  0.99918101  0.49496995  0.94033169     0.86600
O399        O  0.05141575  0.03771521  0.75344447    -0.75700
O400        O  0.03605442  0.41890030  0.74732282    -0.75700
O401        O  0.04388323  0.47833253  0.70617469    -0.75800
O402        O  0.04356087  0.47824652  0.79402752    -0.75800
O403        O  0.95368382  0.01353736  0.79154434    -0.75700
O404        O  0.95400827  0.51365764  0.70365609    -0.75700
O405        O  0.94602467  0.45421552  0.74421632    -0.75700
O406        O  0.96137948  0.07300318  0.75036120    -0.75800
Ni407      Ni  0.04692005  0.47706061  0.75027982     1.25400
Ni408      Ni  0.95058143  0.01484093  0.74741271     1.25400
C409        C  0.00894317  0.07483718  0.75278855     0.86500
C410        C  0.98847109  0.41708289  0.74484391     0.86400
C411        C  0.99903384  0.49606288  0.69036423     0.86500
C412        C  0.99856679  0.49581571  0.80734118     0.86600
O413        O  0.55126533  0.03871701  0.00460725    -0.75700
O414        O  0.53568435  0.42009278  0.99947344    -0.75700
O415        O  0.54342996  0.47879403  0.95776924    -0.75800
O416        O  0.54326842  0.48003695  0.54572163    -0.75800
O417        O  0.45341271  0.51551355  0.54320372    -0.75700
O418        O  0.45356768  0.51422229  0.95528215    -0.75700
O419        O  0.44566088  0.45552920  0.99640658    -0.75700
O420        O  0.46124761  0.07417263  0.50151015    -0.75800
Ni421      Ni  0.54660773  0.47817032  0.00192629     1.25400
Ni422      Ni  0.45027899  0.51610277  0.99906309     1.25400
C423        C  0.50887299  0.07587716  0.50383995     0.86500
C424        C  0.48807190  0.41837157  0.99719019     0.86400
C425        C  0.49853554  0.49637559  0.94196244     0.86500
C426        C  0.49827111  0.49788325  0.55902427     0.86600
O427        O  0.53519333  0.42014968  0.74898415    -0.75700
O428        O  0.55119053  0.03866762  0.75507636    -0.75700
O429        O  0.54299563  0.47935214  0.79566941    -0.75800
O430        O  0.54323969  0.47939074  0.70779990    -0.75800
O431        O  0.45339817  0.51495895  0.70531491    -0.75700
O432        O  0.45315222  0.01492227  0.79320182    -0.75700
O433        O  0.46118463  0.07419357  0.75202897    -0.75700
O434        O  0.44518706  0.45569275  0.74594976    -0.75800
Ni435      Ni  0.54634677  0.47814453  0.75191478     1.25400
Ni436      Ni  0.45003849  0.01619417  0.74908606     1.25400
C437        C  0.48754589  0.41848965  0.74658374     0.86500
C438        C  0.50882276  0.07587142  0.75447396     0.86400
C439        C  0.49801001  0.49705269  0.80898700     0.86500
C440        C  0.49839023  0.49721298  0.69200120     0.86600
C441        C  0.44993835  0.01779833  0.89043081    -0.14600
C442        C  0.49842913  0.49627929  0.90792028     0.07500
C443        C  0.54670124  0.47489778  0.89252293    -0.14600
C444        C  0.54651036  0.47512108  0.86048767    -0.14600
C445        C  0.49804463  0.49674624  0.84300566     0.07500
C446        C  0.44974820  0.01802534  0.85839709    -0.14600
H447        H  0.41199604  0.03466911  0.90149913     0.11500
H448        H  0.58474684  0.45792451  0.90522312     0.11500
H449        H  0.58445536  0.45827477  0.84941827     0.11500
H450        H  0.41170587  0.03502463  0.84570010     0.11500
C451        C  0.44999283  0.01959648  0.60843103    -0.14600
C452        C  0.49825609  0.49790962  0.59306123     0.07500
C453        C  0.54659314  0.47599513  0.61057211    -0.14600
C454        C  0.54666729  0.47574984  0.64260134    -0.14600
C455        C  0.49840744  0.49741431  0.65797303     0.07500
C456        C  0.45006754  0.01935361  0.64046456    -0.14600
H457        H  0.41205156  0.03685553  0.59571201     0.11500
H458        H  0.58450552  0.45883838  0.59952368     0.11500
H459        H  0.58460356  0.45845393  0.65531395     0.11500
H460        H  0.41215004  0.03647490  0.65151457     0.11500
C461        C  0.04745989  0.97401210  0.89089938    -0.14600
C462        C  0.99911251  0.49496608  0.90629116     0.07500
C463        C  0.95053536  0.51613796  0.88879397    -0.14600
C464        C  0.95030597  0.51640421  0.85676107    -0.14600
C465        C  0.99865291  0.49551564  0.84136887     0.07500
C466        C  0.04723014  0.97427709  0.85885973    -0.14600
H467        H  0.08558436  0.95733786  0.90360424     0.11500
H468        H  0.91253507  0.53268217  0.89985568     0.11500
H469        H  0.91218213  0.53310619  0.84406360     0.11500
H470        H  0.08523044  0.95775902  0.84779321     0.11500
C471        C  0.95048134  0.01799822  0.60679273    -0.14600
C472        C  0.99876070  0.49648232  0.59142014     0.07500
C473        C  0.04721600  0.47497589  0.60893906    -0.14600
C474        C  0.04736587  0.47488512  0.64097753    -0.14600
C475        C  0.99905952  0.49628851  0.65634409     0.07500
C476        C  0.95063076  0.51790691  0.63883272    -0.14600
H477        H  0.91246312  0.03498117  0.59407013     0.11500
H478        H  0.08516231  0.45801216  0.59789015     0.11500
H479        H  0.08538189  0.45787874  0.65369671     0.11500
H480        H  0.91268366  0.03484764  0.64988372     0.11500
C481        C  0.45508934  0.25320775  0.85413824    -0.14600
C482        C  0.50868004  0.22963261  0.84553106     0.07500
C483        C  0.55155999  0.22462736  0.86744772    -0.14600
C484        C  0.54107775  0.24264786  0.89737412    -0.14600
C485        C  0.48748878  0.26608115  0.90600731     0.07500
C486        C  0.44460473  0.27121793  0.88407337    -0.14600
H487        H  0.42116325  0.25816089  0.83766818     0.11500
H488        H  0.59327381  0.20674423  0.86150559     0.11500
H489        H  0.57500732  0.23768047  0.91384431     0.11500
H490        H  0.40289576  0.28908955  0.89003095     0.11500
C491        C  0.45556840  0.25329552  0.60345144    -0.14600
C492        C  0.50908235  0.22863907  0.59510174     0.07500
C493        C  0.55185623  0.22252365  0.61723947    -0.14600
C494        C  0.54132715  0.24059775  0.64714668    -0.14600
C495        C  0.48780808  0.26522714  0.65550913     0.07500
C496        C  0.44503700  0.27138375  0.63335911    -0.14600
H497        H  0.42177345  0.25911564  0.58678130     0.11500
H498        H  0.59350139  0.20373534  0.61147830     0.11500
H499        H  0.57513764  0.23478036  0.66380534     0.11500
H500        H  0.40339160  0.29017736  0.63911606     0.11500
C501        C  0.79462426  0.21781105  0.76612986    -0.14600
C502        C  0.79849450  0.25261382  0.74830296     0.07500
C503        C  0.75149817  0.28180705  0.73254101    -0.14600
C504        C  0.70186949  0.27627158  0.73449442    -0.14600
C505        C  0.69800936  0.24140747  0.75226322     0.07500
C506        C  0.74497622  0.21228836  0.76809632    -0.14600
H507        H  0.82995744  0.19485350  0.77866824     0.11500
H508        H  0.75303157  0.30889493  0.71853605     0.11500
H509        H  0.66656131  0.29921300  0.72192965     0.11500
H510        H  0.74344152  0.18517049  0.78207241     0.11500
C511        C  0.24438819  0.21282120  0.76787958    -0.14600
C512        C  0.19833547  0.24027345  0.75056338     0.07500
C513        C  0.20297481  0.27387132  0.73192462    -0.14600
C514        C  0.25250402  0.27985422  0.73062958    -0.14600
C515        C  0.29855430  0.25241159  0.74796140     0.07500
C516        C  0.29390023  0.21881469  0.76659461    -0.14600
H517        H  0.24217070  0.18678453  0.78260144     0.11500
H518        H  0.16836693  0.29546216  0.71820359     0.11500
H519        H  0.25471231  0.30592753  0.71593724     0.11500
H520        H  0.32847893  0.19724680  0.78034415     0.11500
C521        C  0.79482590  0.21765699  0.51646856    -0.14600
C522        C  0.79893352  0.25203664  0.99834362     0.07500
C523        C  0.75213535  0.28095963  0.98228531    -0.14600
C524        C  0.70243291  0.27559400  0.98425131    -0.14600
C525        C  0.69833066  0.24115160  0.50230941     0.07500
C526        C  0.74509759  0.21229639  0.51844188    -0.14600
H527        H  0.83000826  0.19495689  0.52925436     0.11500
H528        H  0.75388854  0.30769756  0.96803201     0.11500
H529        H  0.66727914  0.29828563  0.97144210     0.11500
H530        H  0.74332961  0.18553564  0.53266967     0.11500
C531        C  0.24618042  0.20901368  0.01503786    -0.14600
C532        C  0.19881449  0.23962378  0.50037000     0.07500
C533        C  0.20211381  0.27648785  0.48444876    -0.14600
C534        C  0.25153489  0.28269354  0.48332045    -0.14600
C535        C  0.29885185  0.25220484  0.99809842     0.07500
C536        C  0.29559471  0.21522787  0.01391848    -0.14600
H537        H  0.24511429  0.18028096  0.02755230     0.11500
H538        H  0.16647935  0.30062811  0.47282828     0.11500
H539        H  0.25260057  0.31144389  0.47082656     0.11500
H540        H  0.33121705  0.19109895  0.02555691     0.11500
C541        C  0.04120832  0.24623973  0.89473566    -0.14600
C542        C  0.98779464  0.26363555  0.90445749     0.07500
C543        C  0.94541047  0.26265404  0.88359259    -0.14600
C544        C  0.95616674  0.24487174  0.85362820    -0.14600
C545        C  0.00956205  0.22761630  0.84387543     0.07500
C546        C  0.05196762  0.22844796  0.86477181    -0.14600
H547        H  0.07486915  0.24610968  0.91032206     0.11500
H548        H  0.90386410  0.27551397  0.89040567     0.11500
H549        H  0.92250090  0.24499517  0.83804745     0.11500
H550        H  0.09351330  0.21558956  0.85795801     0.11500
C551        C  0.95775654  0.23933768  0.60421076    -0.14600
C552        C  0.01018394  0.22694507  0.59358123     0.07500
C553        C  0.05132408  0.23271784  0.61356070    -0.14600
C554        C  0.04025389  0.25060822  0.64348072    -0.14600
C555        C  0.98777546  0.26318484  0.65407434     0.07500
C556        C  0.94668429  0.25723457  0.63413343    -0.14600
H557        H  0.92509373  0.23543148  0.58936958     0.11500
H558        H  0.09203745  0.22381870  0.60602222     0.11500
H559        H  0.07291916  0.25452290  0.65831479     0.11500
H560        H  0.90597064  0.26614603  0.64167387     0.11500
O561        O  0.14571415  0.69791273  0.01497393    -0.82100
O562        O  0.89415289  0.72791826  0.00776255    -0.66800
O563        O  0.03999657  0.70905906  0.49119058    -1.13400
C564        C  0.98250435  0.87140782  0.49382758     1.04700
O565        O  0.85219330  0.79301025  0.48285652    -0.80000
O566        O  0.92866665  0.79338836  0.44521811    -0.67600
Ni567      Ni  0.09658729  0.66495753  0.01549323     1.34900
C568        C  0.97685247  0.78053400  0.43657944     0.83500
O569        O  0.97775971  0.65403035  0.99222837    -0.80600
O570        O  0.05780699  0.62313411  0.01761073    -0.90900
C571        C  0.85154377  0.75795353  0.49628366     0.83100
O572        O  0.06921763  0.69781352  0.05270146    -0.69100
O573        O  0.93983939  0.86808971  0.48038701    -0.88300
C574        C  0.02108958  0.71040755  0.06139485     0.83900
C575        C  0.01524677  0.61979367  0.00405177     1.05400
H576        H  0.95213231  0.79152816  0.02812969     0.37300
O577        O  0.95780813  0.78209846  0.00676584    -1.11000
O578        O  0.01642624  0.78121059  0.45464594    -0.67700
Ni579      Ni  0.03070171  0.77328972  0.49824498     1.26300
O580        O  0.98151232  0.70977501  0.04332025    -0.67900
O581        O  0.02000766  0.83718143  0.50565842    -0.80200
C582        C  0.14631818  0.73325177  0.00188039     0.83300
O583        O  0.10372256  0.76331276  0.49039543    -0.65000
Ni584      Ni  0.90119011  0.82613725  0.48242350     1.27400
Ni585      Ni  0.96710737  0.71788132  0.99973690     1.26100
H586        H  0.04564766  0.69962826  0.46982317     0.37800
O587        O  0.14498849  0.69913493  0.26573896    -0.82100
O588        O  0.89364862  0.72876237  0.25792656    -0.66800
O589        O  0.03964336  0.70937044  0.24132820    -1.13400
C590        C  0.98237141  0.87170865  0.24312005     1.04700
O591        O  0.85188020  0.79334617  0.23248397    -0.80000
O592        O  0.92852914  0.79326152  0.19479183    -0.67600
Ni593      Ni  0.09631973  0.66560589  0.26581893     1.34900
C594        C  0.97673804  0.78026384  0.18616622     0.83500
O595        O  0.97719175  0.65452841  0.24292418    -0.80600
O596        O  0.05796072  0.62338948  0.26759448    -0.90900
C597        C  0.85110741  0.75856603  0.24620214     0.83100
O598        O  0.06866889  0.69799403  0.30309501    -0.69100
O599        O  0.93964587  0.86838020  0.22973990    -0.88300
C600        C  0.02044018  0.71110594  0.31168381     0.83900
C601        C  0.01499540  0.62021359  0.25447071     1.05400
H602        H  0.95183832  0.79246062  0.27778000     0.37300
O603        O  0.95750994  0.78269785  0.25646068    -1.11000
O604        O  0.01629656  0.78097784  0.20421724    -0.67700
Ni605      Ni  0.03047164  0.77360179  0.24785590     1.26300
O606        O  0.98072615  0.71110858  0.29353022    -0.67900
O607        O  0.01996657  0.83748477  0.25487876    -0.80200
C608        C  0.14586633  0.73386122  0.25201164     0.83300
O609        O  0.10350632  0.76328023  0.23983517    -0.67400
Ni610      Ni  0.90095472  0.82642872  0.23189716     1.27400
Ni611      Ni  0.96667495  0.71844503  0.24990656     1.26100
H612        H  0.04530034  0.69961986  0.22000831     0.37800
O613        O  0.64493777  0.70017154  0.01765669    -0.82100
O614        O  0.39362551  0.72935346  0.00894282    -0.66800
O615        O  0.53967838  0.71059133  0.49301121    -1.13400
C616        C  0.48186317  0.87309362  0.49564536     1.04700
O617        O  0.35192070  0.79414982  0.48373588    -0.80000
O618        O  0.42824293  0.79601305  0.44661172    -0.67600
Ni619      Ni  0.59636931  0.66649572  0.01730444     1.34900
C620        C  0.47655607  0.78270780  0.43812593     0.83500
O621        O  0.47736977  0.65552074  0.99397350    -0.80600
O622        O  0.55810984  0.62417443  0.01862966    -0.90900
C623        C  0.35120864  0.75895225  0.49696164     0.83100
O624        O  0.56850934  0.69829269  0.05465622    -0.69100
O625        O  0.43880727  0.87005458  0.48258396    -0.88300
C626        C  0.52015095  0.71169046  0.06306817     0.83900
C627        C  0.51511070  0.62114013  0.00547556     1.05400
H628        H  0.45156006  0.79309070  0.02961146     0.37300
O629        O  0.45727872  0.78364650  0.00824797    -1.11000
O630        O  0.51632422  0.78245275  0.45632186    -0.67700
Ni631      Ni  0.53028606  0.77481774  0.49990553     1.26300
O632        O  0.48047192  0.71175905  0.04486426    -0.67900
O633        O  0.51964603  0.83872160  0.50714170    -0.80200
C634        C  0.64576999  0.73502337  0.00406400     0.83300
O635        O  0.60334779  0.76467282  0.49210699    -0.67400
Ni636      Ni  0.40052734  0.82777802  0.48401193     1.27400
Ni637      Ni  0.46667684  0.71939955  0.00128166     1.26100
H638        H  0.54545743  0.70111277  0.47166377     0.37800
O639        O  0.64449365  0.70077744  0.26812139    -0.82100
O640        O  0.39315885  0.72998680  0.25935603    -0.66800
O641        O  0.53940432  0.71047647  0.24324576    -1.13400
C642        C  0.48132400  0.87319626  0.24489307     1.04700
O643        O  0.35208475  0.79331955  0.23262432    -0.80000
O644        O  0.42831328  0.79601127  0.19589127    -0.67600
Ni645      Ni  0.59616048  0.66681294  0.26778317     1.34900
C646        C  0.47675219  0.78210884  0.18756319     0.83500
O647        O  0.47695597  0.65561260  0.24496755    -0.80600
O648        O  0.55821770  0.62421068  0.26911103    -0.90900
C649        C  0.35099741  0.75894294  0.24667382     0.83100
O650        O  0.56808281  0.69872109  0.30509291    -0.69100
O651        O  0.43795069  0.87027970  0.23217750    -0.88300
C652        C  0.51966917  0.71257052  0.31347784     0.83900
C653        C  0.51499779  0.62119777  0.25623407     1.05400
H654        H  0.45115435  0.79379879  0.27908971     0.37300
O655        O  0.45694612  0.78388051  0.25780236    -1.11000
O656        O  0.51656005  0.78140223  0.20583838    -0.67700
Ni657      Ni  0.53004321  0.77477823  0.24947735     1.26300
O658        O  0.47987555  0.71298973  0.29526292    -0.67900
O659        O  0.51943785  0.83874561  0.25607382    -0.80200
C660        C  0.64547570  0.73518628  0.25405890     0.83300
O661        O  0.60316217  0.76438636  0.24168845    -0.67400
Ni662      Ni  0.40016302  0.82754148  0.23327240     1.27400
Ni663      Ni  0.46631819  0.71958452  0.25159494     1.26100
H664        H  0.54518507  0.70056588  0.22195372     0.37800
O665        O  0.03624261  0.91853638  0.49774697    -0.75700
O666        O  0.05162644  0.53731952  0.00312132    -0.75700
O667        O  0.04370665  0.97844463  0.04408338    -0.75800
O668        O  0.04405864  0.97741469  0.45616026    -0.75800
O669        O  0.95418064  0.01270548  0.45362737    -0.75700
O670        O  0.95384155  0.51384833  0.04154586    -0.75700
O671        O  0.96159380  0.57263808  0.99993986    -0.75700
O672        O  0.94620933  0.95388476  0.99464188    -0.75800
Ni673      Ni  0.04710726  0.97668353  0.50031100     1.25400
Ni674      Ni  0.95076503  0.51450235  0.99739936     1.25400
C675        C  0.98865161  0.91674561  0.49540236     0.86500
C676        C  0.00916733  0.57444427  0.00236445     0.86400
C677        C  0.99871004  0.49629858  0.05737711     0.86500
C678        C  0.99918610  0.99496805  0.44033188     0.86600
O679        O  0.05141509  0.53771539  0.25344415    -0.75700
O680        O  0.03605513  0.91890015  0.24732215    -0.75700
O681        O  0.04388239  0.97833330  0.20617420    -0.75800
O682        O  0.04356296  0.97824561  0.29402711    -0.75800
O683        O  0.95368472  0.51353644  0.29154474    -0.75700
O684        O  0.95400745  0.01365865  0.20365652    -0.75700
O685        O  0.94602535  0.95421547  0.24421652    -0.75700
O686        O  0.96137879  0.57300344  0.25036189    -0.75800
Ni687      Ni  0.04692067  0.97706051  0.25027932     1.25400
Ni688      Ni  0.95058078  0.51484118  0.24741311     1.25400
C689        C  0.00894253  0.57483737  0.25278875     0.86500
C690        C  0.98847175  0.91708279  0.24484359     0.86400
C691        C  0.99903257  0.99606413  0.19036418     0.86500
C692        C  0.99856933  0.99581435  0.30734123     0.86600
O693        O  0.55126927  0.53871677  0.50460733    -0.75700
O694        O  0.53568655  0.92009311  0.49947350    -0.75700
O695        O  0.54343224  0.97879429  0.45776943    -0.75800
O696        O  0.54326461  0.98003736  0.04572153    -0.75800
O697        O  0.45340889  0.01551388  0.04320370    -0.75700
O698        O  0.45356995  0.01422257  0.45528232    -0.75700
O699        O  0.44566306  0.95552957  0.49640664    -0.75700
O700        O  0.46124528  0.57417235  0.00150998    -0.75800
Ni701      Ni  0.54660993  0.97817055  0.50192650     1.25400
Ni702      Ni  0.45028119  0.01610310  0.49906321     1.25400
C703        C  0.50887065  0.57587691  0.00383966     0.86500
C704        C  0.48807407  0.91837196  0.49719021     0.86400
C705        C  0.49853777  0.99637569  0.44196261     0.86500
C706        C  0.49826736  0.99788378  0.05902423     0.86600
O707        O  0.53519277  0.92014972  0.24898378    -0.75700
O708        O  0.55119118  0.53866734  0.25507619    -0.75700
O709        O  0.54299577  0.97935158  0.29566918    -0.75800
O710        O  0.54323791  0.97939152  0.20779965    -0.75800
O711        O  0.45339637  0.01495963  0.20531519    -0.75700
O712        O  0.45315398  0.51492106  0.29320205    -0.75700
O713        O  0.46118524  0.57419310  0.25202946    -0.75700
O714        O  0.44518648  0.95569264  0.24594989    -0.75800
Ni715      Ni  0.54634595  0.97814466  0.25191452     1.25400
Ni716      Ni  0.45003927  0.51619367  0.24908631     1.25400
C717        C  0.48754540  0.91848959  0.24658361     0.86500
C718        C  0.50882330  0.57587108  0.25447419     0.86400
C719        C  0.49801041  0.99705190  0.30898706     0.86500
C720        C  0.49838818  0.99721390  0.19200121     0.86600
C721        C  0.44994155  0.51779622  0.39043090    -0.14600
C722        C  0.49843118  0.99627897  0.40792041     0.07500
C723        C  0.54670331  0.97489827  0.39252293    -0.14600
C724        C  0.54651187  0.97512123  0.36048761    -0.14600
C725        C  0.49804564  0.99674527  0.34300571     0.07500
C726        C  0.44975097  0.51802305  0.35839716    -0.14600
H727        H  0.41199917  0.53466611  0.40149926     0.11500
H728        H  0.58474926  0.95792593  0.40522302     0.11500
H729        H  0.58445684  0.95827563  0.34941806     0.11500
H730        H  0.41170833  0.53502141  0.34570027     0.11500
C731        C  0.44999101  0.51959559  0.10843101    -0.14600
C732        C  0.49825263  0.99791053  0.09306119     0.07500
C733        C  0.54659032  0.97599788  0.11057205    -0.14600
C734        C  0.54666491  0.97575277  0.14260126    -0.14600
C735        C  0.49840486  0.99741556  0.15797304     0.07500
C736        C  0.45006628  0.51935292  0.14046458    -0.14600
H737        H  0.41204924  0.53685332  0.09571208     0.11500
H738        H  0.58450288  0.95884241  0.09952358     0.11500
H739        H  0.58460169  0.95845823  0.15531380     0.11500
H740        H  0.41214863  0.53647297  0.15151471     0.11500
C741        C  0.04746304  0.47401117  0.39089917    -0.14600
C742        C  0.99911719  0.99496385  0.40629128     0.07500
C743        C  0.95053944  0.01613445  0.38879429    -0.14600
C744        C  0.95030947  0.01640060  0.35676137    -0.14600
C745        C  0.99865635  0.99551348  0.34136892     0.07500
C746        C  0.04723276  0.47427617  0.35885949    -0.14600
H747        H  0.08558792  0.45733788  0.40360391     0.11500
H748        H  0.91253919  0.03267778  0.39985615     0.11500
H749        H  0.91218521  0.03310157  0.34406404     0.11500
H750        H  0.08523303  0.45775896  0.34779280     0.11500
C751        C  0.95047681  0.51800048  0.10679284    -0.14600
C752        C  0.99875710  0.99648457  0.09142005     0.07500
C753        C  0.04721283  0.97497885  0.10893874    -0.14600
C754        C  0.04736346  0.97488793  0.14097717    -0.14600
C755        C  0.99905733  0.99629047  0.15634403     0.07500
C756        C  0.95062806  0.01790859  0.13883295    -0.14600
H757        H  0.91245827  0.53498297  0.09407040     0.11500
H758        H  0.08515904  0.95801562  0.09788964     0.11500
H759        H  0.08537992  0.95788201  0.15369605     0.11500
H760        H  0.91267985  0.53484945  0.14988408     0.11500
C761        C  0.45509039  0.75320799  0.35413853    -0.14600
C762        C  0.50868095  0.72963296  0.34553114     0.07500
C763        C  0.55156114  0.72462825  0.36744750    -0.14600
C764        C  0.54107931  0.74264893  0.39737387    -0.14600
C765        C  0.48749053  0.76608175  0.40600737     0.07500
C766        C  0.44460625  0.77121832  0.38407365    -0.14600
H767        H  0.42116404  0.75816082  0.33766869     0.11500
H768        H  0.59327491  0.70674525  0.36150521     0.11500
H769        H  0.57500915  0.73768186  0.41384385     0.11500
H770        H  0.40289736  0.78908977  0.39003144     0.11500
C771        C  0.45556684  0.75329458  0.10345152    -0.14600
C772        C  0.50908069  0.72863804  0.09510167     0.07500
C773        C  0.55185485  0.72252261  0.11723922    -0.14600
C774        C  0.54132612  0.74059682  0.14714645    -0.14600
C775        C  0.48780716  0.76522639  0.15550904     0.07500
C776        C  0.44503575  0.77138296  0.13335920    -0.14600
H777        H  0.42177177  0.75911483  0.08678146     0.11500
H778        H  0.59349992  0.70373440  0.11147788     0.11500
H779        H  0.57513678  0.73477957  0.16380498     0.11500
H780        H  0.40339047  0.79017674  0.13911626     0.11500
C781        C  0.79462368  0.71781261  0.26613109    -0.14600
C782        C  0.79849438  0.75261420  0.24830328     0.07500
C783        C  0.75149854  0.78180613  0.23254024    -0.14600
C784        C  0.70186988  0.77627059  0.23449352    -0.14600
C785        C  0.69800930  0.74140766  0.25226324     0.07500
C786        C  0.74497569  0.71228985  0.26809739    -0.14600
H787        H  0.82995645  0.69485606  0.27867031     0.11500
H788        H  0.75303233  0.80889306  0.21853452     0.11500
H789        H  0.66656211  0.79921101  0.22192794     0.11500
H790        H  0.74344062  0.68517288  0.28207425     0.11500
C791        C  0.24438797  0.71282117  0.26787959    -0.14600
C792        C  0.19833564  0.74027285  0.25056289     0.07500
C793        C  0.20297535  0.77387007  0.23192370    -0.14600
C794        C  0.25250461  0.77985292  0.23062879    -0.14600
C795        C  0.29855445  0.75241096  0.24796122     0.07500
C796        C  0.29389998  0.71881467  0.26659478    -0.14600
H797        H  0.24217023  0.68678491  0.28260175     0.11500
H798        H  0.16836778  0.79546037  0.21820224     0.11500
H799        H  0.25471327  0.80592568  0.21593610     0.11500
H800        H  0.32847837  0.69724724  0.28034476     0.11500
C801        C  0.79482308  0.71765771  0.01646833    -0.14600
C802        C  0.79893628  0.75203716  0.49834425     0.07500
C803        C  0.75213791  0.78096102  0.48228652    -0.14600
C804        C  0.70243534  0.77559557  0.48425243    -0.14600
C805        C  0.69832784  0.74115188  0.00230920     0.07500
C806        C  0.74509482  0.71229711  0.01844186    -0.14600
H807        H  0.83000546  0.69495787  0.02925419     0.11500
H808        H  0.75389106  0.80769947  0.46803367     0.11500
H809        H  0.66728146  0.79828786  0.47144364     0.11500
H810        H  0.74332689  0.68553668  0.03266995     0.11500
C811        C  0.24618354  0.70901345  0.51503900    -0.14600
C812        C  0.19881172  0.73962348  0.00036922     0.07500
C813        C  0.20211130  0.77648770  0.98444830    -0.14600
C814        C  0.25153255  0.78269301  0.98331993    -0.14600
C815        C  0.29885467  0.75220463  0.49809905     0.07500
C816        C  0.29559763  0.71522798  0.51391952    -0.14600
H817        H  0.24511757  0.68028099  0.52755377     0.11500
H818        H  0.16647678  0.80062847  0.97282814     0.11500
H819        H  0.25259827  0.81144365  0.97082637     0.11500
H820        H  0.33122000  0.69109949  0.52555821     0.11500
C821        C  0.04121057  0.74623947  0.39473556    -0.14600
C822        C  0.98779720  0.76363373  0.40445793     0.07500
C823        C  0.94541297  0.76265079  0.38359356    -0.14600
C824        C  0.95616874  0.74486879  0.35362911    -0.14600
C825        C  0.00956359  0.72761512  0.34387572     0.07500
C826        C  0.05196938  0.72844801  0.36477157    -0.14600
H827        H  0.07487136  0.74611061  0.41032156     0.11500
H828        H  0.90386687  0.77550950  0.39040710     0.11500
H829        H  0.92250278  0.74499115  0.33804876     0.11500
H830        H  0.09351465  0.71559099  0.35795723     0.11500
C831        C  0.95775408  0.73933954  0.10421036    -0.14600
C832        C  0.01018147  0.72694654  0.09358070     0.07500
C833        C  0.05132198  0.73271905  0.11355998    -0.14600
C834        C  0.04025221  0.75060931  0.14348005    -0.14600
C835        C  0.98777385  0.76318612  0.15407387     0.07500
C836        C  0.94668226  0.75723639  0.13413309    -0.14600
H837        H  0.92509104  0.73543359  0.08936931     0.11500
H838        H  0.09203532  0.72381964  0.10602136     0.11500
H839        H  0.07291780  0.75452367  0.15831399     0.11500
H840        H  0.90596871  0.76614812  0.14167371     0.11500
O841        O  0.14571728  0.69791243  0.51497508    -0.82100
O842        O  0.89415612  0.72791715  0.50776248    -0.66800
O843        O  0.03999296  0.70906039  0.99119013    -1.13400
C844        C  0.98249992  0.87140944  0.99382764     1.04700
O845        O  0.85219023  0.79301010  0.98285531    -0.80000
O846        O  0.92866359  0.79338990  0.94521755    -0.67600
Ni847      Ni  0.09659089  0.66495660  0.51549391     1.34900
C848        C  0.97684953  0.78053566  0.93657908     0.83500
O849        O  0.97776346  0.65402902  0.49222872    -0.80600
O850        O  0.05781098  0.62313277  0.51761096    -0.90900
C851        C  0.85154067  0.75795386  0.99628306     0.83100
O852        O  0.06922045  0.69781235  0.55270210    -0.69100
O853        O  0.93983482  0.86809130  0.98038726    -0.88300
C854        C  0.02109231  0.71040626  0.56139533     0.83900
C855        C  0.01525069  0.61979233  0.50405205     1.05400
H856        H  0.95213618  0.79152691  0.52812992     0.37300
O857        O  0.95781183  0.78209725  0.50676614    -1.11000
O858        O  0.01642308  0.78121219  0.95464578    -0.67700
Ni859      Ni  0.03069805  0.77329116  0.99824481     1.26300
O860        O  0.98151520  0.70977392  0.54332053    -0.67900
O861        O  0.02000364  0.83718301  0.00565825    -0.80200
C862        C  0.14632142  0.73325097  0.50188094     0.83300
O863        O  0.10371915  0.76331440  0.99039566    -0.65000
Ni864      Ni  0.90118624  0.82613810  0.98242303     1.27400
Ni865      Ni  0.96711090  0.71788010  0.49973716     1.26100
H866        H  0.04564388  0.69962976  0.96982265     0.37800
O867        O  0.14498857  0.69913452  0.76573900    -0.82100
O868        O  0.89364864  0.72876181  0.75792560    -0.66800
O869        O  0.03964347  0.70937061  0.74132828    -1.13400
C870        C  0.98237152  0.87170852  0.74312039     1.04700
O871        O  0.85188002  0.79334675  0.73248412    -0.80000
O872        O  0.92853003  0.79326036  0.69479199    -0.67600
Ni873      Ni  0.09631932  0.66560602  0.76581921     1.34900
C874        C  0.97673900  0.78026318  0.68616656     0.83500
O875        O  0.97719219  0.65452825  0.74292340    -0.80600
O876        O  0.05795996  0.62338991  0.76759494    -0.90900
C877        C  0.85110735  0.75856607  0.74620173     0.83100
O878        O  0.06866807  0.69799491  0.80309504    -0.69100
O879        O  0.93964696  0.86837958  0.72973924    -0.88300
C880        C  0.02043924  0.71110654  0.81168365     0.83900
C881        C  0.01499534  0.62021364  0.75447051     1.05400
H882        H  0.95183741  0.79246037  0.77777998     0.37300
O883        O  0.95750964  0.78269776  0.75646069    -1.11000
O884        O  0.01629694  0.78097840  0.70421770    -0.67700
Ni885      Ni  0.03047143  0.77360198  0.74785646     1.26300
O886        O  0.98072568  0.71110821  0.79352992    -0.67900
O887        O  0.01996597  0.83748494  0.75487985    -0.80200
C888        C  0.14586628  0.73386130  0.75201221     0.83300
O889        O  0.10350614  0.76328084  0.73983623    -0.67400
Ni890      Ni  0.90095513  0.82642866  0.73189688     1.27400
Ni891      Ni  0.96667501  0.71844490  0.74990615     1.26100
H892        H  0.04530089  0.69962021  0.72000839     0.37800
O893        O  0.64494011  0.70017229  0.51765729    -0.82100
O894        O  0.39362821  0.72935361  0.50894286    -0.66800
O895        O  0.53967560  0.71059122  0.99301113    -1.13400
C896        C  0.48186024  0.87309349  0.99564529     1.04700
O897        O  0.35191831  0.79414927  0.98373540    -0.80000
O898        O  0.42824059  0.79601268  0.94661143    -0.67600
Ni899      Ni  0.59637197  0.66649616  0.51730480     1.34900
C900        C  0.47655382  0.78270753  0.93812578     0.83500
O901        O  0.47737264  0.65552077  0.49397374    -0.80600
O902        O  0.55811282  0.62417458  0.51862986    -0.90900
C903        C  0.35120612  0.75895181  0.99696123     0.83100
O904        O  0.56851160  0.69829309  0.55465653    -0.69100
O905        O  0.43880453  0.87005435  0.98258371    -0.88300
C906        C  0.52015313  0.71169094  0.56306834     0.83900
C907        C  0.51511367  0.62114020  0.50547582     1.05400
H908        H  0.45156299  0.79309080  0.52961163     0.37300
O909        O  0.45728152  0.78364665  0.50824811    -1.11000
O910        O  0.51632173  0.78245269  0.95632182    -0.67700
Ni911      Ni  0.53028325  0.77481765  0.99990553     1.26300
O912        O  0.48047433  0.71175931  0.54486434    -0.67900
O913        O  0.51964303  0.83872153  0.00714177    -0.80200
C914        C  0.64577259  0.73502368  0.50406420     0.83300
O915        O  0.60334503  0.76467283  0.99210716    -0.67400
Ni916      Ni  0.40052469  0.82777771  0.98401161     1.27400
Ni917      Ni  0.46667958  0.71939968  0.50128174     1.26100
H918        H  0.54545446  0.70111283  0.97166379     0.37800
O919        O  0.64449363  0.70077781  0.76812138    -0.82100
O920        O  0.39315896  0.72998648  0.75935553    -0.66800
O921        O  0.53940438  0.71047684  0.74324570    -1.13400
C922        C  0.48132382  0.87319650  0.74489329     1.04700
O923        O  0.35208454  0.79331979  0.73262438    -0.80000
O924        O  0.42831351  0.79601119  0.69589122    -0.67600
Ni925      Ni  0.59616049  0.66681327  0.76778313     1.34900
C926        C  0.47675247  0.78210927  0.68756326     0.83500
O927        O  0.47695640  0.65561261  0.74496701    -0.80600
O928        O  0.55821785  0.62421086  0.76911082    -0.90900
C929        C  0.35099738  0.75894290  0.74667365     0.83100
O930        O  0.56808247  0.69872133  0.80509291    -0.69100
O931        O  0.43795086  0.87027974  0.73217732    -0.88300
C932        C  0.51966873  0.71257051  0.81347771     0.83900
C933        C  0.51499813  0.62119785  0.75623367     1.05400
H934        H  0.45115391  0.79379876  0.77908969     0.37300
O935        O  0.45694593  0.78388062  0.75780234    -1.11000
O936        O  0.51656007  0.78140288  0.70583859    -0.67700
Ni937      Ni  0.53004302  0.77477858  0.74947754     1.26300
O938        O  0.47987533  0.71298964  0.79526262    -0.67900
O939        O  0.51943744  0.83874593  0.75607430    -0.80200
C940        C  0.64547556  0.73518680  0.75405901     0.83300
O941        O  0.60316195  0.76438699  0.74168873    -0.67400
Ni942      Ni  0.40016302  0.82754160  0.73327230     1.27400
Ni943      Ni  0.46631827  0.71958459  0.75159464     1.26100
H944        H  0.54518527  0.70056643  0.72195367     0.37800
O945        O  0.03623788  0.91853818  0.99774710    -0.75700
O946        O  0.05163062  0.53731811  0.50312155    -0.75700
O947        O  0.04371129  0.97844268  0.54408354    -0.75800
O948        O  0.04405405  0.97741621  0.95616023    -0.75800
O949        O  0.95417608  0.01270721  0.95362715    -0.75700
O950        O  0.95384614  0.51384646  0.54154596    -0.75700
O951        O  0.96159798  0.57263652  0.49993997    -0.75700
O952        O  0.94621407  0.95388305  0.49464201    -0.75800
Ni953      Ni  0.04710263  0.97668520  0.00031093     1.25400
Ni954      Ni  0.95076956  0.51450066  0.49739946     1.25400
C955        C  0.98864692  0.91674736  0.99540242     0.86500
C956        C  0.00917145  0.57444282  0.50236465     0.86400
C957        C  0.99871457  0.49629644  0.55737722     0.86500
C958        C  0.99918167  0.99496983  0.94033177     0.86600
O959        O  0.05141513  0.53771539  0.75344450    -0.75700
O960        O  0.03605514  0.91890005  0.74732297    -0.75700
O961        O  0.04388394  0.97833222  0.70617471    -0.75800
O962        O  0.04356149  0.97824651  0.79402754    -0.75800
O963        O  0.95368322  0.51353745  0.79154433    -0.75700
O964        O  0.95400897  0.01365733  0.70365610    -0.75700
O965        O  0.94602539  0.95421531  0.74421633    -0.75700
O966        O  0.96137888  0.57300336  0.75036122    -0.75800
Ni967      Ni  0.04692072  0.97706042  0.75027985     1.25400
Ni968      Ni  0.95058079  0.51484112  0.74741271     1.25400
C969        C  0.00894259  0.57483735  0.75278857     0.86500
C970        C  0.98847179  0.91708267  0.74484397     0.86400
C971        C  0.99903454  0.99606257  0.69036424     0.86500
C972        C  0.99856741  0.99581564  0.80734120     0.86600
O973        O  0.55126623  0.53871679  0.00460710    -0.75700
O974        O  0.53568347  0.92009310  0.99947343    -0.75700
O975        O  0.54342906  0.97879423  0.95776928    -0.75800
O976        O  0.54326766  0.98003716  0.54572170    -0.75800
O977        O  0.45341195  0.01551385  0.54320377    -0.75700
O978        O  0.45356678  0.01422258  0.95528216    -0.75700
O979        O  0.44565998  0.95552948  0.99640658    -0.75700
O980        O  0.46124833  0.57417235  0.50151014    -0.75800
Ni981      Ni  0.54660678  0.97817058  0.00192634     1.25400
Ni982      Ni  0.45027805  0.01610307  0.99906310     1.25400
C983        C  0.50887369  0.57587691  0.50383991     0.86500
C984        C  0.48807103  0.91837189  0.99719016     0.86400
C985        C  0.49853465  0.99637580  0.94196246     0.86500
C986        C  0.49827032  0.99788353  0.55902433     0.86600
O987        O  0.53519272  0.92014985  0.74898423    -0.75700
O988        O  0.55119134  0.53866741  0.75507625    -0.75700
O989        O  0.54299481  0.97935223  0.79566952    -0.75800
O990        O  0.54323892  0.97939103  0.70779996    -0.75800
O991        O  0.45339738  0.01495917  0.70531497    -0.75700
O992        O  0.45315302  0.51492197  0.79320176    -0.75700
O993        O  0.46118544  0.57419327  0.75202896    -0.75700
O994        O  0.44518644  0.95569292  0.74594983    -0.75800
Ni995      Ni  0.54634604  0.97814472  0.75191488     1.25400
Ni996      Ni  0.45003923  0.51619393  0.74908601     1.25400
C997        C  0.48754529  0.91848980  0.74658384     0.86500
C998        C  0.50882355  0.57587118  0.75447389     0.86400
C999        C  0.49800916  0.99705287  0.80898709     0.86500
C1000       C  0.49838942  0.99721318  0.69200125     0.86600
C1001       C  0.44993919  0.51779808  0.89043078    -0.14600
C1002       C  0.49842825  0.99627951  0.90792029     0.07500
C1003       C  0.54670025  0.97489800  0.89252294    -0.14600
C1004       C  0.54650938  0.97512124  0.86048769    -0.14600
C1005       C  0.49804367  0.99674650  0.84300571     0.07500
C1006       C  0.44974916  0.51802496  0.85839706    -0.14600
H1007       H  0.41199687  0.53466892  0.90149906     0.11500
H1008       H  0.58474590  0.95792466  0.90522312     0.11500
H1009       H  0.58445437  0.95827476  0.84941827     0.11500
H1010       H  0.41170682  0.53502418  0.84570003     0.11500
C1011       C  0.44999380  0.51959641  0.60843102    -0.14600
C1012       C  0.49825523  0.99790991  0.59306128     0.07500
C1013       C  0.54659226  0.97599550  0.61057221    -0.14600
C1014       C  0.54666639  0.97575010  0.64260141    -0.14600
C1015       C  0.49840650  0.99741443  0.65797308     0.07500
C1016       C  0.45006857  0.51935360  0.64046454    -0.14600
H1017       H  0.41205250  0.53685558  0.59571205     0.11500
H1018       H  0.58450467  0.95883877  0.59952380     0.11500
H1019       H  0.58460267  0.95845424  0.65531402     0.11500
H1020       H  0.41215107  0.53647496  0.65151456     0.11500
C1021       C  0.04745913  0.47401220  0.89089931    -0.14600
C1022       C  0.99911324  0.99496604  0.90629122     0.07500
C1023       C  0.95053602  0.01613792  0.88879404    -0.14600
C1024       C  0.95030663  0.01640392  0.85676111    -0.14600
C1025       C  0.99865356  0.99551543  0.84136889     0.07500
C1026       C  0.04722948  0.47427725  0.85885968    -0.14600
H1027       H  0.08558362  0.45733792  0.90360416     0.11500
H1028       H  0.91253577  0.03268216  0.89985575     0.11500
H1029       H  0.91218280  0.03310574  0.84406360     0.11500
H1030       H  0.08522978  0.45775920  0.84779319     0.11500
C1031       C  0.95048081  0.51799838  0.60679265    -0.14600
C1032       C  0.99876122  0.99648208  0.59142019     0.07500
C1033       C  0.04721649  0.97497557  0.60893909    -0.14600
C1034       C  0.04736646  0.97488486  0.64097753    -0.14600
C1035       C  0.99906014  0.99628823  0.65634412     0.07500
C1036       C  0.95063128  0.01790664  0.63883280    -0.14600
H1037       H  0.91246257  0.53498120  0.59407003     0.11500
H1038       H  0.08516277  0.95801178  0.59789016     0.11500
H1039       H  0.08538255  0.95787847  0.65369665     0.11500
H1040       H  0.91268310  0.53484803  0.64988363     0.11500
C1041       C  0.45508944  0.75320793  0.85413820    -0.14600
C1042       C  0.50868010  0.72963259  0.84553105     0.07500
C1043       C  0.55155996  0.72462720  0.86744773    -0.14600
C1044       C  0.54107766  0.74264786  0.89737409    -0.14600
C1045       C  0.48748874  0.76608126  0.90600727     0.07500
C1046       C  0.44460479  0.77121821  0.88407328    -0.14600
H1047       H  0.42116333  0.75816117  0.83766812     0.11500
H1048       H  0.59327378  0.70674383  0.86150568     0.11500
H1049       H  0.57500724  0.73768042  0.91384430     0.11500
H1050       H  0.40289581  0.78909000  0.89003078     0.11500
C1051       C  0.45556844  0.75329543  0.60345136    -0.14600
C1052       C  0.50908248  0.72863893  0.59510174     0.07500
C1053       C  0.55185639  0.72252358  0.61723949    -0.14600
C1054       C  0.54132710  0.74059778  0.64714668    -0.14600
C1055       C  0.48780796  0.76522714  0.65550908     0.07500
C1056       C  0.44503690  0.77138363  0.63335905    -0.14600
H1057       H  0.42177359  0.75911556  0.58678117     0.11500
H1058       H  0.59350155  0.70373534  0.61147837     0.11500
H1059       H  0.57513749  0.73478051  0.66380539     0.11500
H1060       H  0.40339149  0.79017710  0.63911599     0.11500
C1061       C  0.79462406  0.71781164  0.76612990    -0.14600
C1062       C  0.79849430  0.75261438  0.74830301     0.07500
C1063       C  0.75149796  0.78180769  0.73254104    -0.14600
C1064       C  0.70186917  0.77627241  0.73449449    -0.14600
C1065       C  0.69800910  0.74140822  0.75226324     0.07500
C1066       C  0.74497602  0.71228903  0.76809627    -0.14600
H1067       H  0.82995716  0.69485405  0.77866830     0.11500
H1068       H  0.75303152  0.80889548  0.71853605     0.11500
H1069       H  0.66656103  0.79921393  0.72192982     0.11500
H1070       H  0.74344127  0.68517106  0.78207230     0.11500
C1071       C  0.24438843  0.71282034  0.76787930    -0.14600
C1072       C  0.19833561  0.74027289  0.75056336     0.07500
C1073       C  0.20297486  0.77387097  0.73192481    -0.14600
C1074       C  0.25250405  0.77985377  0.73062968    -0.14600
C1075       C  0.29855441  0.75241092  0.74796127     0.07500
C1076       C  0.29390044  0.71881382  0.76659429    -0.14600
H1077       H  0.24217105  0.68678344  0.78260102     0.11500
H1078       H  0.16836687  0.79546207  0.71820396     0.11500
H1079       H  0.25471220  0.80592730  0.71593745     0.11500
H1080       H  0.32847922  0.69724573  0.78034370     0.11500
C1081       C  0.79482581  0.71765734  0.51646844    -0.14600
C1082       C  0.79893344  0.75203712  0.99834364     0.07500
C1083       C  0.75213518  0.78096031  0.98228553    -0.14600
C1084       C  0.70243277  0.77559470  0.98425161    -0.14600
C1085       C  0.69833046  0.74115215  0.50230948     0.07500
C1086       C  0.74509749  0.71229685  0.51844178    -0.14600
H1087       H  0.83000820  0.69495701  0.52925407     0.11500
H1088       H  0.75388828  0.80769841  0.96803234     0.11500
H1089       H  0.66727892  0.79828648  0.97144250     0.11500
H1090       H  0.74332954  0.68553599  0.53266951     0.11500
C1091       C  0.24618060  0.70901307  0.01503780    -0.14600
C1092       C  0.19881466  0.73962322  0.50037000     0.07500
C1093       C  0.20211400  0.77648726  0.48444876    -0.14600
C1094       C  0.25153502  0.78269297  0.48332047    -0.14600
C1095       C  0.29885213  0.75220416  0.99809832     0.07500
C1096       C  0.29559493  0.71522724  0.01391843    -0.14600
H1097       H  0.24511439  0.68028043  0.02755230     0.11500
H1098       H  0.16647951  0.80062752  0.47282827     0.11500
H1099       H  0.25260056  0.81144344  0.47082663     0.11500
H1100       H  0.33121725  0.69109838  0.02555693     0.11500
C1101       C  0.04120835  0.74624002  0.89473561    -0.14600
C1102       C  0.98779470  0.76363549  0.90445754     0.07500
C1103       C  0.94541059  0.76265365  0.88359270    -0.14600
C1104       C  0.95616682  0.74487126  0.85362832    -0.14600
C1105       C  0.00956206  0.72761629  0.84387544     0.07500
C1106       C  0.05196768  0.72844830  0.86477173    -0.14600
H1107       H  0.07486910  0.74611029  0.91032196     0.11500
H1108       H  0.90386424  0.77551341  0.89040582     0.11500
H1109       H  0.92250102  0.74499429  0.83804766     0.11500
H1110       H  0.09351328  0.71559023  0.85795786     0.11500
C1111       C  0.95775639  0.73933781  0.60421072    -0.14600
C1112       C  0.01018391  0.72694492  0.59358124     0.07500
C1113       C  0.05132414  0.73271751  0.61356072    -0.14600
C1114       C  0.04025386  0.75060798  0.64348071    -0.14600
C1115       C  0.98777540  0.76318489  0.65407432     0.07500
C1116       C  0.94668419  0.75723484  0.63413337    -0.14600
H1117       H  0.92509350  0.73543182  0.58936954     0.11500
H1118       H  0.09203757  0.72381822  0.60602228     0.11500
H1119       H  0.07291920  0.75452253  0.65831481     0.11500
H1120       H  0.90597048  0.76614658  0.64167377     0.11500
loop_ 
_geom_bond_atom_site_label_1 
_geom_bond_atom_site_label_2 
_geom_bond_distance 
_geom_bond_site_symmetry_2 
_ccdc_geom_bond_type 
O1           Ni7   1.928       .  S
O1           C22   1.271       .  A
O2          Ni25   1.900   1_554  S
O2          C291   1.266   1_554  A
O3           H26   0.966       .  S
O3          Ni19   1.917       .  S
O3         Ni287   1.924       .  S
O3         Ni305   1.912   1_455  S
C4           O21   1.266   1_655  A
C4           O13   1.273       .  A
C4          C115   1.466       .  S
O5          Ni24   1.929       .  S
O5           C11   1.272       .  A
O6          Ni24   1.903       .  S
O6            C8   1.270       .  A
Ni7          O10   1.935       .  S
Ni7          O12   1.903       .  S
Ni7         O283   1.924   1_554  S
C8           O18   1.274   1_655  A
C8          C262   1.478       .  S
O9          Ni25   1.899       .  S
O9           C15   1.266   1_656  A
O10          C15   1.273       .  A
C11         O282   1.266       .  A
C11         C242   1.482       .  S
O12          C14   1.270       .  A
O13         Ni24   1.935       .  S
C14          O20   1.274   1_455  A
C14         C272   1.478       .  S
C15         C116   1.466       .  S
H16          O17   0.966       .  S
O17         Ni25   1.916   1_554  S
O17        Ni299   1.912   1_654  S
O17        Ni304   1.925   1_554  S
O18         Ni19   1.931       .  S
Ni19         O23   1.900       .  S
Ni19         O21   1.900       .  S
Ni19        O297   1.912   1_455  S
O20         Ni25   1.931   1_554  S
C22         O303   1.266   1_554  A
C22         C252   1.483       .  S
O23         C302   1.266       .  A
Ni24        O297   1.925       .  S
Ni25        O283   1.912   1_655  S
O27         Ni33   1.930       .  S
O27          C48   1.272       .  A
O28         Ni51   1.900       .  S
O28          C37   1.266       .  A
O29          H52   0.966       .  S
O29         Ni33   1.925       .  S
O29         Ni51   1.913   1_455  S
O29         Ni45   1.915       .  S
C30          O47   1.266   1_655  A
C30          O39   1.273       .  A
C30         C130   1.467       .  S
O31         Ni50   1.930       .  S
O31          C37   1.272       .  A
O32         Ni50   1.904       .  S
O32          C34   1.270       .  A
Ni33         O36   1.935       .  S
Ni33         O38   1.903       .  S
C34          O44   1.273   1_655  A
C34         C275   1.478       .  S
O35         Ni51   1.899       .  S
O35          C41   1.267   1_655  A
O36          C41   1.273       .  A
C37         C222   1.483       .  S
O38          C40   1.270       .  A
O39         Ni50   1.936       .  S
C40          O46   1.273   1_455  A
C40         C265   1.478       .  S
C41         C129   1.466       .  S
H42          O43   0.966       .  S
O43         Ni51   1.916       .  S
O43         Ni45   1.913   1_655  S
O43         Ni50   1.925       .  S
O44         Ni45   1.930       .  S
Ni45         O49   1.900       .  S
Ni45         O47   1.899       .  S
O46         Ni51   1.929       .  S
C48          O49   1.266       .  A
C48         C232   1.482       .  S
O53         Ni59   1.929       .  S
O53          C74   1.271       .  A
O54         Ni77   1.899       .  S
O54         C343   1.266   1_554  A
O55          H78   0.966       .  S
O55         Ni71   1.915       .  S
O55        Ni339   1.925       .  S
O55        Ni357   1.912       .  S
C56          O73   1.267       .  A
C56          O65   1.272       .  A
C56         C144   1.465       .  S
O57         Ni76   1.929       .  S
O57          C63   1.272       .  A
O58         Ni76   1.902       .  S
O58          C60   1.270       .  A
Ni59         O62   1.933       .  S
Ni59         O64   1.901       .  S
Ni59        O335   1.925   1_554  S
C60          O70   1.273       .  A
C60         C205   1.476       .  S
O61         Ni77   1.899   1_556  S
O61          C67   1.266   1_556  A
O62          C67   1.272       .  A
C63         O334   1.266       .  A
C63         C255   1.483       .  S
O64          C66   1.270       .  A
O65         Ni76   1.933       .  S
C66          O72   1.273       .  A
C66         C212   1.475       .  S
C67         C143   1.465       .  S
H68          O69   0.966       .  S
O69         Ni77   1.916       .  S
O69        Ni351   1.913   1_554  S
O69        Ni356   1.925   1_554  S
O70         Ni71   1.928       .  S
Ni71         O75   1.899       .  S
Ni71         O73   1.900       .  S
Ni71        O349   1.913       .  S
O72         Ni77   1.928       .  S
C74         O355   1.266   1_554  A
C74         C245   1.482       .  S
O75         C354   1.266       .  A
Ni76        O349   1.925       .  S
Ni77        O335   1.912   1_554  S
O79         Ni85   1.931       .  S
O79         C100   1.272       .  A
O80        Ni103   1.900       .  S
O80          C89   1.266       .  A
O81         H104   0.966       .  S
O81         Ni85   1.926       .  S
O81        Ni103   1.913       .  S
O81         Ni97   1.915       .  S
C82          O99   1.267       .  A
C82          O91   1.273       .  A
C82         C157   1.466       .  S
O83        Ni102   1.930       .  S
O83          C89   1.272       .  A
O84        Ni102   1.902       .  S
O84          C86   1.269       .  A
Ni85         O88   1.934       .  S
Ni85         O90   1.902       .  S
C86          O96   1.273       .  A
C86         C215   1.475       .  S
O87        Ni103   1.899       .  S
O87          C93   1.267       .  A
O88          C93   1.273       .  A
C89         C235   1.483       .  S
O90          C92   1.270       .  A
O91        Ni102   1.933       .  S
C92          O98   1.273       .  A
C92         C202   1.476       .  S
C93         C158   1.466       .  S
H94          O95   0.966       .  S
O95        Ni103   1.915       .  S
O95         Ni97   1.913       .  S
O95        Ni102   1.926       .  S
O96         Ni97   1.926       .  S
Ni97        O101   1.899       .  S
Ni97         O99   1.899       .  S
O98        Ni103   1.928       .  S
C100        O101   1.266       .  A
C100        C225   1.483       .  S
O105       Ni113   1.918       .  S
O105        C115   1.281   1_455  A
O106       Ni953   1.918   1_545  S
O106        C116   1.281       .  A
O107       Ni393   1.919       .  S
O107        C677   1.282   1_455  A
O108       Ni113   1.928       .  S
O108        C118   1.284   1_455  A
O109       Ni954   1.919       .  S
O109        C118   1.282       .  A
O110       Ni114   1.927   1_554  S
O110        C117   1.284   1_545  A
O111       Ni114   1.917       .  S
O111        C116   1.280   1_656  A
O112       Ni674   1.918       .  S
O112        C395   1.281       .  A
Ni113       O946   1.918       .  S
Ni113       O387   1.919       .  S
Ni113      Ni954   2.388   1_455  S
Ni114       O949   1.919       .  S
Ni114       O672   1.918   1_545  S
Ni114      Ni953   2.388   1_646  S
C115        O392   1.281       .  A
C117        O667   1.282   1_655  A
C117        C752   1.488       .  S
C118        C182   1.488       .  S
O119       Ni687   1.918   1_545  S
O119        C129   1.281       .  A
O120       Ni127   1.918       .  S
O120        C130   1.281   1_455  A
O121       Ni127   1.927       .  S
O121        C131   1.284   1_455  A
O122       Ni127   1.919       .  S
O122        C132   1.282   1_455  A
O123       Ni128   1.928       .  S
O123        C692   1.284   1_545  A
O124       Ni688   1.919       .  S
O124        C131   1.282       .  A
O125       Ni688   1.918       .  S
O125        C130   1.281       .  A
O126       Ni128   1.917       .  S
O126        C129   1.280   1_655  A
Ni127       O679   1.918       .  S
Ni127      Ni688   2.388   1_455  S
Ni128       O684   1.919       .  S
Ni128       O685   1.918   1_545  S
Ni128      Ni687   2.388   1_645  S
C131        C195   1.488       .  S
C132        O683   1.284       .  A
C132        C185   1.488       .  S
O133       Ni701   1.916   1_545  S
O133        C423   1.281       .  A
O134       Ni141   1.916       .  S
O134        C144   1.280       .  A
O135       Ni141   1.928       .  S
O135        C145   1.284       .  A
O136       Ni421   1.920       .  S
O136        C146   1.282       .  A
O137       Ni422   1.927   1_554  S
O137        C146   1.284       .  A
O138       Ni142   1.919       .  S
O138        C145   1.282       .  A
O139       Ni142   1.917       .  S
O139        C144   1.281       .  A
O140       Ni982   1.917   1_554  S
O140        C143   1.280       .  A
Ni141       O693   1.916       .  S
Ni141       O416   1.920       .  S
Ni141      Ni142   2.388       .  S
Ni142       O417   1.927       .  S
Ni142       O980   1.917       .  S
C143        O413   1.281       .  A
C145        C162   1.488       .  S
C146        C172   1.488       .  S
O147       Ni155   1.917       .  S
O147        C157   1.280       .  A
O148       Ni715   1.918   1_545  S
O148        C158   1.281       .  A
O149       Ni155   1.919       .  S
O149        C159   1.282       .  A
O150       Ni155   1.927       .  S
O150        C160   1.284       .  A
O151       Ni716   1.920       .  S
O151        C160   1.282       .  A
O152       Ni156   1.927       .  S
O152        C719   1.284   1_545  A
O153       Ni156   1.917       .  S
O153        C158   1.280       .  A
O154       Ni716   1.917       .  S
O154        C157   1.281       .  A
Ni155       O708   1.918       .  S
Ni155      Ni716   2.388       .  S
Ni156       O711   1.920       .  S
Ni156       O714   1.917   1_545  S
Ni156      Ni715   2.388   1_545  S
C159        O712   1.284       .  A
C159        C165   1.488       .  S
C160        C175   1.488       .  S
C161        C166   1.401       .  A
C161        C722   1.408   1_545  A
C161        H167   1.083       .  S
C162        C163   1.406       .  A
C162        C721   1.408       .  A
C163        C164   1.401       .  A
C163        H168   1.083       .  S
C164        C165   1.408       .  A
C164        H169   1.083       .  S
C165        C726   1.406       .  A
C166        C725   1.406   1_545  A
C166        H170   1.083       .  S
C171        C176   1.401       .  A
C171        C732   1.406   1_545  A
C171        H177   1.083       .  S
C172        C173   1.407       .  A
C172        C731   1.406       .  A
C173        C174   1.401       .  A
C173        H178   1.083       .  S
C174        C175   1.406       .  A
C174        H179   1.083       .  S
C175        C736   1.408       .  A
C176        C735   1.408   1_545  A
C176        H180   1.083       .  S
C181        C186   1.401       .  A
C181        C742   1.406   1_455  A
C181        H187   1.083       .  S
C182        C183   1.408       .  A
C182        C741   1.406   1_655  A
C183        C184   1.401       .  A
C183        H188   1.083       .  S
C184        C185   1.406       .  A
C184        H189   1.083       .  S
C185        C746   1.408   1_655  A
C186        C745   1.408   1_455  A
C186        H190   1.083       .  S
C191        C752   1.406   1_545  A
C191        C756   1.401       .  A
C191        H197   1.083       .  S
C192        C677   1.488       .  S
C192        C193   1.408   1_655  A
C192        C751   1.406       .  A
C193        C194   1.401       .  A
C193        H198   1.083       .  S
C194        C195   1.406   1_455  A
C194        H199   1.083       .  S
C195        C196   1.407       .  A
C196        C751   1.401       .  A
C196        H760   1.083       .  S
H200        C756   1.083       .  S
C201        C202   1.406       .  A
C201        C206   1.395       .  A
C201        H207   1.083       .  S
C202        C203   1.404       .  A
C203        C204   1.395       .  A
C203        H208   1.083       .  S
C204        C205   1.406       .  A
C204        H209   1.083       .  S
C205        C206   1.404       .  A
C206        H210   1.083       .  S
C211        C212   1.406       .  A
C211        C216   1.395       .  A
C211        H217   1.083       .  S
C212        C213   1.404       .  A
C213        C214   1.395       .  A
C213        H218   1.083       .  S
C214        C215   1.406       .  A
C214        H219   1.083       .  S
C215        C216   1.404       .  A
C216        H220   1.083       .  S
C221        C222   1.406       .  A
C221        C226   1.398       .  A
C221        H227   1.083       .  S
C222        C223   1.406       .  A
C223        C224   1.398       .  A
C223        H228   1.083       .  S
C224        C225   1.406       .  A
C224        H229   1.083       .  S
C225        C226   1.407       .  A
C226        H230   1.083       .  S
C231        C232   1.407       .  A
C231        C236   1.398       .  A
C231        H237   1.083       .  S
C232        C233   1.405       .  A
C233        C234   1.398       .  A
C233        H238   1.083       .  S
C234        C235   1.407       .  A
C234        H239   1.083       .  S
C235        C236   1.405       .  A
C236        H240   1.083       .  S
C241        C246   1.398       .  A
C241        C522   1.406   1_554  A
C241        H247   1.083       .  S
C242        C243   1.406       .  A
C242        C521   1.406       .  A
C243        C244   1.397       .  A
C243        H248   1.083       .  S
C244        C525   1.405       .  A
C244        H249   1.083       .  S
C245        C246   1.407       .  A
C245        C524   1.405   1_554  A
C246        H250   1.083       .  S
C251        C256   1.397       .  A
C251        C532   1.407       .  A
C251        H257   1.083       .  S
C252        C253   1.405   1_554  A
C252        C531   1.407       .  A
C253        C254   1.398       .  A
C253        H258   1.083       .  S
C254        C535   1.407       .  A
C254        H259   1.083       .  S
C255        C256   1.406       .  A
C255        C534   1.407       .  A
C256        H260   1.083       .  S
C261        C262   1.406   1_455  A
C261        C266   1.395       .  A
C261        H267   1.083       .  S
C262        C263   1.405       .  A
C263        C264   1.395       .  A
C263        H268   1.083       .  S
C264        C265   1.406   1_655  A
C264        H269   1.083       .  S
C265        C266   1.405       .  A
C266        H270   1.083       .  S
C271        C272   1.406   1_655  A
C271        C276   1.396       .  A
C271        H277   1.083       .  S
C272        C273   1.405       .  A
C273        C274   1.395       .  A
C273        H278   1.083       .  S
C274        C275   1.406   1_455  A
C274        H279   1.083       .  S
C275        C276   1.405       .  A
C276        H280   1.083       .  S
O281       Ni287   1.928       .  S
O281        C302   1.271       .  A
O282       Ni305   1.900       .  S
O283        H306   0.966       .  S
O283       Ni299   1.917       .  S
C284        O301   1.266   1_656  A
C284        O293   1.273       .  A
C284        C395   1.466       .  S
O285       Ni304   1.929       .  S
O285        C291   1.272       .  A
O286       Ni304   1.903       .  S
O286        C288   1.270       .  A
Ni287       O290   1.935       .  S
Ni287       O292   1.903       .  S
C288        O298   1.274   1_655  A
C288        C542   1.478       .  S
O289       Ni305   1.899       .  S
O289        C295   1.266   1_655  A
O290        C295   1.273       .  A
C291        C522   1.482       .  S
O292        C294   1.270       .  A
O293       Ni304   1.935       .  S
C294        O300   1.274   1_455  A
C294        C552   1.478       .  S
C295        C396   1.466       .  S
H296        O297   0.966       .  S
O297       Ni305   1.916       .  S
O298       Ni299   1.931       .  S
Ni299       O303   1.900       .  S
Ni299       O301   1.900   1_556  S
O300       Ni305   1.931       .  S
C302        C532   1.483       .  S
O307       Ni313   1.930       .  S
O307        C328   1.272       .  A
O308       Ni331   1.900       .  S
O308        C317   1.266       .  A
O309        H332   0.966       .  S
O309       Ni313   1.925       .  S
O309       Ni331   1.913   1_455  S
O309       Ni325   1.915       .  S
C310        O327   1.266   1_655  A
C310        O319   1.273       .  A
C310        C410   1.467       .  S
O311       Ni330   1.930       .  S
O311        C317   1.272       .  A
O312       Ni330   1.904       .  S
O312        C314   1.270       .  A
Ni313       O316   1.935       .  S
Ni313       O318   1.903       .  S
C314        O324   1.273   1_655  A
C314        C555   1.478       .  S
O315       Ni331   1.899       .  S
O315        C321   1.267   1_655  A
O316        C321   1.273       .  A
C317        C502   1.483       .  S
O318        C320   1.270       .  A
O319       Ni330   1.936       .  S
C320        O326   1.273   1_455  A
C320        C545   1.478       .  S
C321        C409   1.466       .  S
H322        O323   0.966       .  S
O323       Ni331   1.916       .  S
O323       Ni325   1.913   1_655  S
O323       Ni330   1.925       .  S
O324       Ni325   1.930       .  S
Ni325       O329   1.900       .  S
Ni325       O327   1.899       .  S
O326       Ni331   1.929       .  S
C328        O329   1.266       .  A
C328        C512   1.482       .  S
O333       Ni339   1.929       .  S
O333        C354   1.271       .  A
O334       Ni357   1.899       .  S
O335        H358   0.966       .  S
O335       Ni351   1.915       .  S
C336        O353   1.267   1_556  A
C336        O345   1.272       .  A
C336        C424   1.465       .  S
O337       Ni356   1.929       .  S
O337        C343   1.272       .  A
O338       Ni356   1.902       .  S
O338        C340   1.270       .  A
Ni339       O342   1.933       .  S
Ni339       O344   1.901       .  S
C340        O350   1.273       .  A
C340        C485   1.476       .  S
O341       Ni357   1.899       .  S
O341        C347   1.266       .  A
O342        C347   1.272       .  A
C343        C535   1.483       .  S
O344        C346   1.270       .  A
O345       Ni356   1.933       .  S
C346        O352   1.273       .  A
C346        C492   1.475       .  S
C347        C423   1.465       .  S
H348        O349   0.966       .  S
O349       Ni357   1.916       .  S
O350       Ni351   1.928       .  S
Ni351       O355   1.899       .  S
Ni351       O353   1.900   1_556  S
O352       Ni357   1.928       .  S
C354        C525   1.482       .  S
O359       Ni365   1.931       .  S
O359        C380   1.272       .  A
O360       Ni383   1.900       .  S
O360        C369   1.266       .  A
O361        H384   0.966       .  S
O361       Ni365   1.926       .  S
O361       Ni383   1.913       .  S
O361       Ni377   1.915       .  S
C362        O379   1.267       .  A
C362        O371   1.273       .  A
C362        C437   1.466       .  S
O363       Ni382   1.930       .  S
O363        C369   1.272       .  A
O364       Ni382   1.902       .  S
O364        C366   1.269       .  A
Ni365       O368   1.934       .  S
Ni365       O370   1.902       .  S
C366        O376   1.273       .  A
C366        C495   1.475       .  S
O367       Ni383   1.899       .  S
O367        C373   1.267       .  A
O368        C373   1.273       .  A
C369        C515   1.483       .  S
O370        C372   1.270       .  A
O371       Ni382   1.933       .  S
C372        O378   1.273       .  A
C372        C482   1.476       .  S
C373        C438   1.466       .  S
H374        O375   0.966       .  S
O375       Ni383   1.915       .  S
O375       Ni377   1.913       .  S
O375       Ni382   1.926       .  S
O376       Ni377   1.926       .  S
Ni377       O381   1.899       .  S
Ni377       O379   1.899       .  S
O378       Ni383   1.928       .  S
C380        O381   1.266       .  A
C380        C505   1.483       .  S
O385       Ni393   1.918   1_556  S
O385        C395   1.281   1_455  A
O386       Ni673   1.918   1_545  S
O386        C396   1.281       .  A
O387        C957   1.282   1_455  A
O388       Ni393   1.928   1_556  S
O388        C398   1.284   1_455  A
O389       Ni674   1.919       .  S
O389        C398   1.282       .  A
O390       Ni394   1.927       .  S
O390        C397   1.284   1_545  A
O391       Ni394   1.917       .  S
O391        C396   1.280   1_655  A
O392       Ni954   1.918       .  S
Ni393       O666   1.918       .  S
Ni393      Ni674   2.388   1_454  S
Ni394       O669   1.919       .  S
Ni394       O952   1.918   1_545  S
Ni394      Ni673   2.388   1_645  S
C397        O947   1.282   1_655  A
C397       C1032   1.488       .  S
C398        C462   1.488       .  S
O399       Ni967   1.918   1_545  S
O399        C409   1.281       .  A
O400       Ni407   1.918       .  S
O400        C410   1.281   1_455  A
O401       Ni407   1.927       .  S
O401        C411   1.284   1_455  A
O402       Ni407   1.919       .  S
O402        C412   1.282   1_455  A
O403       Ni408   1.928       .  S
O403        C972   1.284   1_545  A
O404       Ni968   1.919       .  S
O404        C411   1.282       .  A
O405       Ni968   1.918       .  S
O405        C410   1.281       .  A
O406       Ni408   1.917       .  S
O406        C409   1.280   1_655  A
Ni407       O959   1.918       .  S
Ni407      Ni968   2.388   1_455  S
Ni408       O964   1.919       .  S
Ni408       O965   1.918   1_545  S
Ni408      Ni967   2.388   1_645  S
C411        C475   1.488       .  S
C412        O963   1.284       .  A
C412        C465   1.488       .  S
O413       Ni981   1.916   1_545  S
O414       Ni421   1.916   1_556  S
O414        C424   1.280       .  A
O415       Ni421   1.928   1_556  S
O415        C425   1.284       .  A
O416        C426   1.282       .  A
O417        C426   1.284       .  A
O418       Ni422   1.919       .  S
O418        C425   1.282       .  A
O419       Ni422   1.917       .  S
O419        C424   1.281       .  A
O420       Ni702   1.917       .  S
O420        C423   1.280       .  A
Ni421       O973   1.916       .  S
Ni421      Ni422   2.388   1_554  S
Ni422       O700   1.917   1_556  S
C425        C442   1.488       .  S
C426        C452   1.488       .  S
O427       Ni435   1.917       .  S
O427        C437   1.280       .  A
O428       Ni995   1.918   1_545  S
O428        C438   1.281       .  A
O429       Ni435   1.919       .  S
O429        C439   1.282       .  A
O430       Ni435   1.927       .  S
O430        C440   1.284       .  A
O431       Ni996   1.920       .  S
O431        C440   1.282       .  A
O432       Ni436   1.927       .  S
O432        C999   1.284   1_545  A
O433       Ni436   1.917       .  S
O433        C438   1.280       .  A
O434       Ni996   1.917       .  S
O434        C437   1.281       .  A
Ni435       O988   1.918       .  S
Ni435      Ni996   2.388       .  S
Ni436       O991   1.920       .  S
Ni436       O994   1.917   1_545  S
Ni436      Ni995   2.388   1_545  S
C439        O992   1.284       .  A
C439        C445   1.488       .  S
C440        C455   1.488       .  S
C441       C1002   1.408   1_545  A
C441        C446   1.401       .  A
C441        H447   1.083       .  S
C442       C1001   1.408       .  A
C442        C443   1.406       .  A
C443        C444   1.401       .  A
C443        H448   1.083       .  S
C444        C445   1.408       .  A
C444        H449   1.083       .  S
C445       C1006   1.406       .  A
C446       C1005   1.406   1_545  A
C446        H450   1.083       .  S
C451       C1012   1.406   1_545  A
C451        C456   1.401       .  A
C451        H457   1.083       .  S
C452       C1011   1.406       .  A
C452        C453   1.407       .  A
C453        C454   1.401       .  A
C453        H458   1.083       .  S
C454        C455   1.406       .  A
C454        H459   1.083       .  S
C455       C1016   1.408       .  A
C456       C1015   1.408   1_545  A
C456        H460   1.083       .  S
C461       C1022   1.406   1_455  A
C461        C466   1.401       .  A
C461        H467   1.083       .  S
C462       C1021   1.406   1_655  A
C462        C463   1.408       .  A
C463        C464   1.401       .  A
C463        H468   1.083       .  S
C464        C465   1.406       .  A
C464        H469   1.083       .  S
C465       C1026   1.408   1_655  A
C466       C1025   1.408   1_455  A
C466        H470   1.083       .  S
C471       C1032   1.406   1_545  A
C471       C1036   1.401       .  A
C471        H477   1.083       .  S
C472        C957   1.488       .  S
C472       C1031   1.406       .  A
C472        C473   1.408   1_655  A
C473        C474   1.401       .  A
C473        H478   1.083       .  S
C474        C475   1.406   1_455  A
C474        H479   1.083       .  S
C475        C476   1.407       .  A
C476       C1031   1.401       .  A
C476       H1040   1.083       .  S
H480       C1036   1.083       .  S
C481        C482   1.406       .  A
C481        C486   1.395       .  A
C481        H487   1.083       .  S
C482        C483   1.404       .  A
C483        C484   1.395       .  A
C483        H488   1.083       .  S
C484        C485   1.406       .  A
C484        H489   1.083       .  S
C485        C486   1.404       .  A
C486        H490   1.083       .  S
C491        C492   1.406       .  A
C491        C496   1.395       .  A
C491        H497   1.083       .  S
C492        C493   1.404       .  A
C493        C494   1.395       .  A
C493        H498   1.083       .  S
C494        C495   1.406       .  A
C494        H499   1.083       .  S
C495        C496   1.404       .  A
C496        H500   1.083       .  S
C501        C502   1.406       .  A
C501        C506   1.398       .  A
C501        H507   1.083       .  S
C502        C503   1.406       .  A
C503        C504   1.398       .  A
C503        H508   1.083       .  S
C504        C505   1.406       .  A
C504        H509   1.083       .  S
C505        C506   1.407       .  A
C506        H510   1.083       .  S
C511        C512   1.407       .  A
C511        C516   1.398       .  A
C511        H517   1.083       .  S
C512        C513   1.405       .  A
C513        C514   1.398       .  A
C513        H518   1.083       .  S
C514        C515   1.407       .  A
C514        H519   1.083       .  S
C515        C516   1.405       .  A
C516        H520   1.083       .  S
C521        C526   1.398       .  A
C521        H527   1.083       .  S
C522        C523   1.406       .  A
C523        C524   1.397       .  A
C523        H528   1.083       .  S
C524        H529   1.083       .  S
C525        C526   1.407       .  A
C526        H530   1.083       .  S
C531        C536   1.397       .  A
C531        H537   1.083       .  S
C532        C533   1.405       .  A
C533        C534   1.398       .  A
C533        H538   1.083       .  S
C534        H539   1.083       .  S
C535        C536   1.406   1_556  A
C536        H540   1.083       .  S
C541        C542   1.406   1_455  A
C541        C546   1.395       .  A
C541        H547   1.083       .  S
C542        C543   1.405       .  A
C543        C544   1.395       .  A
C543        H548   1.083       .  S
C544        C545   1.406   1_655  A
C544        H549   1.083       .  S
C545        C546   1.405       .  A
C546        H550   1.083       .  S
C551        C552   1.406   1_655  A
C551        C556   1.396       .  A
C551        H557   1.083       .  S
C552        C553   1.405       .  A
C553        C554   1.395       .  A
C553        H558   1.083       .  S
C554        C555   1.406   1_455  A
C554        H559   1.083       .  S
C555        C556   1.405       .  A
C556        H560   1.083       .  S
O561       Ni567   1.928       .  S
O561        C582   1.271       .  A
O562       Ni585   1.900   1_554  S
O562        C851   1.266   1_554  A
O563        H586   0.966       .  S
O563       Ni847   1.924       .  S
O563       Ni865   1.912   1_455  S
O563       Ni579   1.917       .  S
C564        O581   1.266   1_655  A
C564        O573   1.273       .  A
C564        C675   1.466       .  S
O565       Ni584   1.929       .  S
O565        C571   1.272       .  A
O566       Ni584   1.903       .  S
O566        C568   1.270       .  A
Ni567       O570   1.935       .  S
Ni567       O572   1.903       .  S
Ni567       O843   1.924   1_554  S
C568        O578   1.274   1_655  A
C568        C822   1.478       .  S
O569       Ni585   1.899       .  S
O569        C575   1.266   1_656  A
O570        C575   1.273       .  A
C571        O842   1.266       .  A
C571        C802   1.482       .  S
O572        C574   1.270       .  A
O573       Ni584   1.935       .  S
C574        O580   1.274   1_455  A
C574        C832   1.478       .  S
C575        C676   1.466       .  S
H576        O577   0.966       .  S
O577       Ni585   1.916   1_554  S
O577       Ni859   1.912   1_654  S
O577       Ni864   1.925   1_554  S
O578       Ni579   1.931       .  S
Ni579       O583   1.900       .  S
Ni579       O581   1.900       .  S
Ni579       O857   1.912   1_455  S
O580       Ni585   1.931   1_554  S
C582        O863   1.266   1_554  A
C582        C812   1.483       .  S
O583        C862   1.266       .  A
Ni584       O857   1.925       .  S
Ni585       O843   1.912   1_655  S
O587       Ni593   1.930       .  S
O587        C608   1.272       .  A
O588       Ni611   1.900       .  S
O588        C597   1.266       .  A
O589        H612   0.966       .  S
O589       Ni593   1.925       .  S
O589       Ni611   1.913   1_455  S
O589       Ni605   1.915       .  S
C590        O607   1.266   1_655  A
C590        O599   1.273       .  A
C590        C690   1.467       .  S
O591       Ni610   1.930       .  S
O591        C597   1.272       .  A
O592       Ni610   1.904       .  S
O592        C594   1.270       .  A
Ni593       O596   1.935       .  S
Ni593       O598   1.903       .  S
C594        O604   1.273   1_655  A
C594        C835   1.478       .  S
O595       Ni611   1.899       .  S
O595        C601   1.267   1_655  A
O596        C601   1.273       .  A
C597        C782   1.483       .  S
O598        C600   1.270       .  A
O599       Ni610   1.936       .  S
C600        O606   1.273   1_455  A
C600        C825   1.478       .  S
C601        C689   1.466       .  S
H602        O603   0.966       .  S
O603       Ni611   1.916       .  S
O603       Ni605   1.913   1_655  S
O603       Ni610   1.925       .  S
O604       Ni605   1.930       .  S
Ni605       O609   1.900       .  S
Ni605       O607   1.899       .  S
O606       Ni611   1.929       .  S
C608        O609   1.266       .  A
C608        C792   1.482       .  S
O613       Ni619   1.929       .  S
O613        C634   1.271       .  A
O614       Ni637   1.899       .  S
O614        C903   1.266   1_554  A
O615        H638   0.966       .  S
O615       Ni899   1.925       .  S
O615       Ni917   1.912       .  S
O615       Ni631   1.915       .  S
C616        O633   1.267       .  A
C616        O625   1.272       .  A
C616        C704   1.465       .  S
O617       Ni636   1.929       .  S
O617        C623   1.272       .  A
O618       Ni636   1.902       .  S
O618        C620   1.270       .  A
Ni619       O622   1.933       .  S
Ni619       O624   1.901       .  S
Ni619       O895   1.925   1_554  S
C620        O630   1.273       .  A
C620        C765   1.476       .  S
O621       Ni637   1.899   1_556  S
O621        C627   1.266   1_556  A
O622        C627   1.272       .  A
C623        O894   1.266       .  A
C623        C815   1.483       .  S
O624        C626   1.270       .  A
O625       Ni636   1.933       .  S
C626        O632   1.273       .  A
C626        C772   1.475       .  S
C627        C703   1.465       .  S
H628        O629   0.966       .  S
O629       Ni637   1.916       .  S
O629       Ni911   1.913   1_554  S
O629       Ni916   1.925   1_554  S
O630       Ni631   1.928       .  S
Ni631       O635   1.899       .  S
Ni631       O633   1.900       .  S
Ni631       O909   1.913       .  S
O632       Ni637   1.928       .  S
C634        O915   1.266   1_554  A
C634        C805   1.482       .  S
O635        C914   1.266       .  A
Ni636       O909   1.925       .  S
Ni637       O895   1.912   1_554  S
O639       Ni645   1.931       .  S
O639        C660   1.272       .  A
O640       Ni663   1.900       .  S
O640        C649   1.266       .  A
O641        H664   0.966       .  S
O641       Ni645   1.926       .  S
O641       Ni663   1.913       .  S
O641       Ni657   1.915       .  S
C642        O659   1.267       .  A
C642        O651   1.273       .  A
C642        C717   1.466       .  S
O643       Ni662   1.930       .  S
O643        C649   1.272       .  A
O644       Ni662   1.902       .  S
O644        C646   1.269       .  A
Ni645       O648   1.934       .  S
Ni645       O650   1.902       .  S
C646        O656   1.273       .  A
C646        C775   1.475       .  S
O647       Ni663   1.899       .  S
O647        C653   1.267       .  A
O648        C653   1.273       .  A
C649        C795   1.483       .  S
O650        C652   1.270       .  A
O651       Ni662   1.933       .  S
C652        O658   1.273       .  A
C652        C762   1.476       .  S
C653        C718   1.466       .  S
H654        O655   0.966       .  S
O655       Ni663   1.915       .  S
O655       Ni657   1.913       .  S
O655       Ni662   1.926       .  S
O656       Ni657   1.926       .  S
Ni657       O661   1.899       .  S
Ni657       O659   1.899       .  S
O658       Ni663   1.928       .  S
C660        O661   1.266       .  A
C660        C785   1.483       .  S
O665       Ni673   1.918       .  S
O665        C675   1.281   1_455  A
O666        C676   1.281       .  A
O667       Ni953   1.919       .  S
O668       Ni673   1.928       .  S
O668        C678   1.284   1_455  A
O669        C678   1.282   1_545  A
O670       Ni674   1.927   1_554  S
O670        C677   1.284       .  A
O671       Ni674   1.917       .  S
O671        C676   1.280   1_656  A
O672        C955   1.281       .  A
Ni673       O947   1.919       .  S
C675        O952   1.281       .  A
C678        C742   1.488       .  S
O679        C689   1.281       .  A
O680       Ni687   1.918       .  S
O680        C690   1.281   1_455  A
O681       Ni687   1.927       .  S
O681        C691   1.284   1_455  A
O682       Ni687   1.919       .  S
O682        C692   1.282   1_455  A
O683       Ni688   1.928       .  S
O684        C691   1.282   1_545  A
O685        C690   1.281       .  A
O686       Ni688   1.917       .  S
O686        C689   1.280   1_655  A
C691        C755   1.488       .  S
C692        C745   1.488       .  S
O693        C983   1.281       .  A
O694       Ni701   1.916       .  S
O694        C704   1.280       .  A
O695       Ni701   1.928       .  S
O695        C705   1.284       .  A
O696       Ni981   1.920       .  S
O696        C706   1.282       .  A
O697       Ni982   1.927   1_554  S
O697        C706   1.284   1_545  A
O698       Ni702   1.919       .  S
O698        C705   1.282   1_545  A
O699       Ni702   1.917   1_565  S
O699        C704   1.281       .  A
O700        C703   1.280       .  A
Ni701       O976   1.920       .  S
Ni701      Ni702   2.388   1_565  S
Ni702       O977   1.927       .  S
C703        O973   1.281       .  A
C705        C722   1.488       .  S
C706        C732   1.488       .  S
O707       Ni715   1.917       .  S
O707        C717   1.280       .  A
O708        C718   1.281       .  A
O709       Ni715   1.919       .  S
O709        C719   1.282       .  A
O710       Ni715   1.927       .  S
O710        C720   1.284       .  A
O711        C720   1.282   1_545  A
O712       Ni716   1.927       .  S
O713       Ni716   1.917       .  S
O713        C718   1.280       .  A
O714        C717   1.281       .  A
C719        C725   1.488       .  S
C720        C735   1.488       .  S
C721        C726   1.401       .  A
C721        H727   1.083       .  S
C722        C723   1.406       .  A
C723        C724   1.401       .  A
C723        H728   1.083       .  S
C724        C725   1.408       .  A
C724        H729   1.083       .  S
C726        H730   1.083       .  S
C731        C736   1.401       .  A
C731        H737   1.083       .  S
C732        C733   1.407       .  A
C733        C734   1.401       .  A
C733        H738   1.083       .  S
C734        C735   1.406       .  A
C734        H739   1.083       .  S
C736        H740   1.083       .  S
C741        C746   1.401       .  A
C741        H747   1.083       .  S
C742        C743   1.408   1_565  A
C743        C744   1.401       .  A
C743        H748   1.083       .  S
C744        C745   1.406   1_545  A
C744        H749   1.083       .  S
C746        H750   1.083       .  S
C751        H757   1.083       .  S
C752        C753   1.408   1_655  A
C753        C754   1.401       .  A
C753        H758   1.083       .  S
C754        C755   1.406   1_455  A
C754        H759   1.083       .  S
C755        C756   1.407   1_565  A
C761        C762   1.406       .  A
C761        C766   1.395       .  A
C761        H767   1.083       .  S
C762        C763   1.404       .  A
C763        C764   1.395       .  A
C763        H768   1.083       .  S
C764        C765   1.406       .  A
C764        H769   1.083       .  S
C765        C766   1.404       .  A
C766        H770   1.083       .  S
C771        C772   1.406       .  A
C771        C776   1.395       .  A
C771        H777   1.083       .  S
C772        C773   1.404       .  A
C773        C774   1.395       .  A
C773        H778   1.083       .  S
C774        C775   1.406       .  A
C774        H779   1.083       .  S
C775        C776   1.404       .  A
C776        H780   1.083       .  S
C781        C782   1.406       .  A
C781        C786   1.398       .  A
C781        H787   1.083       .  S
C782        C783   1.406       .  A
C783        C784   1.398       .  A
C783        H788   1.083       .  S
C784        C785   1.406       .  A
C784        H789   1.083       .  S
C785        C786   1.407       .  A
C786        H790   1.083       .  S
C791        C792   1.407       .  A
C791        C796   1.398       .  A
C791        H797   1.083       .  S
C792        C793   1.405       .  A
C793        C794   1.398       .  A
C793        H798   1.083       .  S
C794        C795   1.407       .  A
C794        H799   1.083       .  S
C795        C796   1.405       .  A
C796        H800   1.083       .  S
C801       C1082   1.406   1_554  A
C801        C806   1.398       .  A
C801        H807   1.083       .  S
C802       C1081   1.406       .  A
C802        C803   1.406       .  A
C803        C804   1.397       .  A
C803        H808   1.083       .  S
C804       C1085   1.405       .  A
C804        H809   1.083       .  S
C805       C1084   1.405   1_554  A
C805        C806   1.407       .  A
C806        H810   1.083       .  S
C811       C1092   1.407       .  A
C811        C816   1.397       .  A
C811        H817   1.083       .  S
C812       C1091   1.407       .  A
C812        C813   1.405   1_554  A
C813        C814   1.398       .  A
C813        H818   1.083       .  S
C814       C1095   1.407       .  A
C814        H819   1.083       .  S
C815       C1094   1.407       .  A
C815        C816   1.406       .  A
C816        H820   1.083       .  S
C821        C822   1.406   1_455  A
C821        C826   1.395       .  A
C821        H827   1.083       .  S
C822        C823   1.405       .  A
C823        C824   1.395       .  A
C823        H828   1.083       .  S
C824        C825   1.406   1_655  A
C824        H829   1.083       .  S
C825        C826   1.405       .  A
C826        H830   1.083       .  S
C831        C832   1.406   1_655  A
C831        C836   1.396       .  A
C831        H837   1.083       .  S
C832        C833   1.405       .  A
C833        C834   1.395       .  A
C833        H838   1.083       .  S
C834        C835   1.406   1_455  A
C834        H839   1.083       .  S
C835        C836   1.405       .  A
C836        H840   1.083       .  S
O841       Ni847   1.928       .  S
O841        C862   1.271       .  A
O842       Ni865   1.900       .  S
O843        H866   0.966       .  S
O843       Ni859   1.917       .  S
C844        O861   1.266   1_656  A
C844        O853   1.273       .  A
C844        C955   1.466       .  S
O845       Ni864   1.929       .  S
O845        C851   1.272       .  A
O846       Ni864   1.903       .  S
O846        C848   1.270       .  A
Ni847       O850   1.935       .  S
Ni847       O852   1.903       .  S
C848        O858   1.274   1_655  A
C848       C1102   1.478       .  S
O849       Ni865   1.899       .  S
O849        C855   1.266   1_655  A
O850        C855   1.273       .  A
C851       C1082   1.482       .  S
O852        C854   1.270       .  A
O853       Ni864   1.935       .  S
C854        O860   1.274   1_455  A
C854       C1112   1.478       .  S
C855        C956   1.466       .  S
H856        O857   0.966       .  S
O857       Ni865   1.916       .  S
O858       Ni859   1.931       .  S
Ni859       O863   1.900       .  S
Ni859       O861   1.900   1_556  S
O860       Ni865   1.931       .  S
C862       C1092   1.483       .  S
O867       Ni873   1.930       .  S
O867        C888   1.272       .  A
O868       Ni891   1.900       .  S
O868        C877   1.266       .  A
O869        H892   0.966       .  S
O869       Ni873   1.925       .  S
O869       Ni891   1.913   1_455  S
O869       Ni885   1.915       .  S
C870        O887   1.266   1_655  A
C870        O879   1.273       .  A
C870        C970   1.467       .  S
O871       Ni890   1.930       .  S
O871        C877   1.272       .  A
O872       Ni890   1.904       .  S
O872        C874   1.270       .  A
Ni873       O876   1.935       .  S
Ni873       O878   1.903       .  S
C874        O884   1.273   1_655  A
C874       C1115   1.478       .  S
O875       Ni891   1.899       .  S
O875        C881   1.267   1_655  A
O876        C881   1.273       .  A
C877       C1062   1.483       .  S
O878        C880   1.270       .  A
O879       Ni890   1.936       .  S
C880        O886   1.273   1_455  A
C880       C1105   1.478       .  S
C881        C969   1.466       .  S
H882        O883   0.966       .  S
O883       Ni891   1.916       .  S
O883       Ni885   1.913   1_655  S
O883       Ni890   1.925       .  S
O884       Ni885   1.930       .  S
Ni885       O889   1.900       .  S
Ni885       O887   1.899       .  S
O886       Ni891   1.929       .  S
C888        O889   1.266       .  A
C888       C1072   1.482       .  S
O893       Ni899   1.929       .  S
O893        C914   1.271       .  A
O894       Ni917   1.899       .  S
O895        H918   0.966       .  S
O895       Ni911   1.915       .  S
C896        O913   1.267   1_556  A
C896        O905   1.272       .  A
C896        C984   1.465       .  S
O897       Ni916   1.929       .  S
O897        C903   1.272       .  A
O898       Ni916   1.902       .  S
O898        C900   1.270       .  A
Ni899       O902   1.933       .  S
Ni899       O904   1.901       .  S
C900        O910   1.273       .  A
C900       C1045   1.476       .  S
O901       Ni917   1.899       .  S
O901        C907   1.266       .  A
O902        C907   1.272       .  A
C903       C1095   1.483       .  S
O904        C906   1.270       .  A
O905       Ni916   1.933       .  S
C906        O912   1.273       .  A
C906       C1052   1.475       .  S
C907        C983   1.465       .  S
H908        O909   0.966       .  S
O909       Ni917   1.916       .  S
O910       Ni911   1.928       .  S
Ni911       O915   1.899       .  S
Ni911       O913   1.900   1_556  S
O912       Ni917   1.928       .  S
C914       C1085   1.482       .  S
O919       Ni925   1.931       .  S
O919        C940   1.272       .  A
O920       Ni943   1.900       .  S
O920        C929   1.266       .  A
O921        H944   0.966       .  S
O921       Ni925   1.926       .  S
O921       Ni943   1.913       .  S
O921       Ni937   1.915       .  S
C922        O939   1.267       .  A
C922        O931   1.273       .  A
C922        C997   1.466       .  S
O923       Ni942   1.930       .  S
O923        C929   1.272       .  A
O924       Ni942   1.902       .  S
O924        C926   1.269       .  A
Ni925       O928   1.934       .  S
Ni925       O930   1.902       .  S
C926        O936   1.273       .  A
C926       C1055   1.475       .  S
O927       Ni943   1.899       .  S
O927        C933   1.267       .  A
O928        C933   1.273       .  A
C929       C1075   1.483       .  S
O930        C932   1.270       .  A
O931       Ni942   1.933       .  S
C932        O938   1.273       .  A
C932       C1042   1.476       .  S
C933        C998   1.466       .  S
H934        O935   0.966       .  S
O935       Ni943   1.915       .  S
O935       Ni937   1.913       .  S
O935       Ni942   1.926       .  S
O936       Ni937   1.926       .  S
Ni937       O941   1.899       .  S
Ni937       O939   1.899       .  S
O938       Ni943   1.928       .  S
C940        O941   1.266       .  A
C940       C1065   1.483       .  S
O945       Ni953   1.918   1_556  S
O945        C955   1.281   1_455  A
O946        C956   1.281       .  A
O948       Ni953   1.928   1_556  S
O948        C958   1.284   1_455  A
O949        C958   1.282   1_545  A
O950       Ni954   1.927       .  S
O950        C957   1.284       .  A
O951       Ni954   1.917       .  S
O951        C956   1.280   1_655  A
C958       C1022   1.488       .  S
O959        C969   1.281       .  A
O960       Ni967   1.918       .  S
O960        C970   1.281   1_455  A
O961       Ni967   1.927       .  S
O961        C971   1.284   1_455  A
O962       Ni967   1.919       .  S
O962        C972   1.282   1_455  A
O963       Ni968   1.928       .  S
O964        C971   1.282   1_545  A
O965        C970   1.281       .  A
O966       Ni968   1.917       .  S
O966        C969   1.280   1_655  A
C971       C1035   1.488       .  S
C972       C1025   1.488       .  S
O974       Ni981   1.916   1_556  S
O974        C984   1.280       .  A
O975       Ni981   1.928   1_556  S
O975        C985   1.284       .  A
O976        C986   1.282       .  A
O977        C986   1.284   1_545  A
O978       Ni982   1.919       .  S
O978        C985   1.282   1_545  A
O979       Ni982   1.917   1_565  S
O979        C984   1.281       .  A
O980        C983   1.280       .  A
Ni981      Ni982   2.388   1_564  S
C985       C1002   1.488       .  S
C986       C1012   1.488       .  S
O987       Ni995   1.917       .  S
O987        C997   1.280       .  A
O988        C998   1.281       .  A
O989       Ni995   1.919       .  S
O989        C999   1.282       .  A
O990       Ni995   1.927       .  S
O990       C1000   1.284       .  A
O991       C1000   1.282   1_545  A
O992       Ni996   1.927       .  S
O993       Ni996   1.917       .  S
O993        C998   1.280       .  A
O994        C997   1.281       .  A
C999       C1005   1.488       .  S
C1000      C1015   1.488       .  S
C1001      C1006   1.401       .  A
C1001      H1007   1.083       .  S
C1002      C1003   1.406       .  A
C1003      C1004   1.401       .  A
C1003      H1008   1.083       .  S
C1004      C1005   1.408       .  A
C1004      H1009   1.083       .  S
C1006      H1010   1.083       .  S
C1011      C1016   1.401       .  A
C1011      H1017   1.083       .  S
C1012      C1013   1.407       .  A
C1013      C1014   1.401       .  A
C1013      H1018   1.083       .  S
C1014      C1015   1.406       .  A
C1014      H1019   1.083       .  S
C1016      H1020   1.083       .  S
C1021      C1026   1.401       .  A
C1021      H1027   1.083       .  S
C1022      C1023   1.408   1_565  A
C1023      C1024   1.401       .  A
C1023      H1028   1.083       .  S
C1024      C1025   1.406   1_545  A
C1024      H1029   1.083       .  S
C1026      H1030   1.083       .  S
C1031      H1037   1.083       .  S
C1032      C1033   1.408   1_655  A
C1033      C1034   1.401       .  A
C1033      H1038   1.083       .  S
C1034      C1035   1.406   1_455  A
C1034      H1039   1.083       .  S
C1035      C1036   1.407   1_565  A
C1041      C1042   1.406       .  A
C1041      C1046   1.395       .  A
C1041      H1047   1.083       .  S
C1042      C1043   1.404       .  A
C1043      C1044   1.395       .  A
C1043      H1048   1.083       .  S
C1044      C1045   1.406       .  A
C1044      H1049   1.083       .  S
C1045      C1046   1.404       .  A
C1046      H1050   1.083       .  S
C1051      C1052   1.406       .  A
C1051      C1056   1.395       .  A
C1051      H1057   1.083       .  S
C1052      C1053   1.404       .  A
C1053      C1054   1.395       .  A
C1053      H1058   1.083       .  S
C1054      C1055   1.406       .  A
C1054      H1059   1.083       .  S
C1055      C1056   1.404       .  A
C1056      H1060   1.083       .  S
C1061      C1062   1.406       .  A
C1061      C1066   1.398       .  A
C1061      H1067   1.083       .  S
C1062      C1063   1.406       .  A
C1063      C1064   1.398       .  A
C1063      H1068   1.083       .  S
C1064      C1065   1.406       .  A
C1064      H1069   1.083       .  S
C1065      C1066   1.407       .  A
C1066      H1070   1.083       .  S
C1071      C1072   1.407       .  A
C1071      C1076   1.398       .  A
C1071      H1077   1.083       .  S
C1072      C1073   1.405       .  A
C1073      C1074   1.398       .  A
C1073      H1078   1.083       .  S
C1074      C1075   1.407       .  A
C1074      H1079   1.083       .  S
C1075      C1076   1.405       .  A
C1076      H1080   1.083       .  S
C1081      C1086   1.398       .  A
C1081      H1087   1.083       .  S
C1082      C1083   1.406       .  A
C1083      C1084   1.397       .  A
C1083      H1088   1.083       .  S
C1084      H1089   1.083       .  S
C1085      C1086   1.407       .  A
C1086      H1090   1.083       .  S
C1091      C1096   1.397       .  A
C1091      H1097   1.083       .  S
C1092      C1093   1.405       .  A
C1093      C1094   1.398       .  A
C1093      H1098   1.083       .  S
C1094      H1099   1.083       .  S
C1095      C1096   1.406   1_556  A
C1096      H1100   1.083       .  S
C1101      C1102   1.406   1_455  A
C1101      C1106   1.395       .  A
C1101      H1107   1.083       .  S
C1102      C1103   1.405       .  A
C1103      C1104   1.395       .  A
C1103      H1108   1.083       .  S
C1104      C1105   1.406   1_655  A
C1104      H1109   1.083       .  S
C1105      C1106   1.405       .  A
C1106      H1110   1.083       .  S
C1111      C1112   1.406   1_655  A
C1111      C1116   1.396       .  A
C1111      H1117   1.083       .  S
C1112      C1113   1.405       .  A
C1113      C1114   1.395       .  A
C1113      H1118   1.083       .  S
C1114      C1115   1.406   1_455  A
C1114      H1119   1.083       .  S
C1115      C1116   1.405       .  A
C1116      H1120   1.083       .  S
