geometry optimzed in LAMMPS
_audit_creation_date              2020-11-30 
_audit_creation_method            'lammps2cif' 
_symmetry_space_group_name_H-M    'P1' 
_symmetry_Int_Tables_number       1 
_symmetry_cell_setting            triclinic 
loop_ 
_symmetry_equiv_pos_as_xyz 
  x,y,z 
_cell_length_a                    32.72634397 
_cell_length_b                    40.98532829667536 
_cell_length_c                    50.319708649270254 
_cell_angle_alpha                 92.25679899357647 
_cell_angle_beta                  89.63309948706474 
_cell_angle_gamma                 90.25430922929894 
loop_ 
_atom_site_label 
_atom_site_type_symbol 
_atom_site_fract_x 
_atom_site_fract_y 
_atom_site_fract_z 
_atom_site_charge 
C1          C  0.99760122  0.35902905  0.10755319     0.86100
C2          C  0.02051520  0.39202515  0.11068894    -0.54100
C3          C  0.00076953  0.41779001  0.10027213     0.09100
C4          C  0.96067457  0.40830033  0.08621571     0.20000
C5          C  0.95440292  0.36666694  0.11915553    -0.54800
C6          C  0.93446215  0.39229697  0.10795197     0.09200
C7          C  0.99236196  0.35544757  0.07721035    -0.54400
C8          C  0.97234972  0.38050608  0.06616444     0.09700
H9          H  0.05067602  0.39536897  0.11893428     0.14200
H10         H  0.94654016  0.42906963  0.07640330     0.00000
H11         H  0.94139710  0.35273753  0.13500738     0.14500
H12         H  0.00429968  0.33492801  0.06528293     0.14300
C13         C  0.58398448  0.18456600  0.35720466     0.86100
C14         C  0.56290752  0.15219420  0.36235039    -0.54100
C15         C  0.58040078  0.12595406  0.34986550     0.09100
C16         C  0.62048043  0.13351422  0.33538232     0.20000
C17         C  0.62829261  0.17903619  0.36740736    -0.54800
C18         C  0.64736115  0.15178996  0.35621688     0.09200
C19         C  0.59040353  0.18569278  0.32707370    -0.54400
C20         C  0.60974809  0.15925591  0.31524469     0.09700
H21         H  0.53765843  0.14970738  0.37617571     0.14200
H22         H  0.63434819  0.11146797  0.32681195     0.00000
H23         H  0.64315078  0.19431734  0.38236294     0.14500
H24         H  0.58140510  0.20679784  0.31614698     0.14300
Zr25       Zr  0.65941441  0.10473995  0.07475112     2.17500
O26         O  0.62491241  0.07334668  0.03921720    -0.51700
O27         O  0.71144327  0.06246264  0.07983248    -0.74900
O28         O  0.68705898  0.11476943  0.03040651    -0.81700
O29         O  0.58468688  0.07257975  0.12608770    -0.83400
O30         O  0.71498968  0.16572348  0.03056025    -0.79100
O31         O  0.61258071  0.06005657  0.08541031    -0.90700
O32         O  0.75889063  0.08122188  0.10960062    -0.76600
O33         O  0.72061787  0.13500042  0.08385721    -0.86100
O34         O  0.67240008  0.10025485  0.12091943    -0.85800
O35         O  0.64403966  0.16034886  0.06417728    -0.72600
O36         O  0.60035756  0.12748131  0.09730587    -0.84700
Zr37       Zr  0.66070149  0.20802231  0.14376716     2.26400
Zr38       Zr  0.70537619  0.19049894  0.07448020     2.06300
Zr39       Zr  0.61412572  0.12304959  0.14346000     2.10000
Zr40       Zr  0.73301736  0.13099829  0.13009382     1.78800
O41         O  0.54152899  0.12612591  0.15418710    -0.93500
O42         O  0.80161501  0.14781924  0.11723768    -0.41300
O43         O  0.67523412  0.15274100  0.15366413    -0.78000
O44         O  0.72017603  0.18669234  0.12080258    -0.96700
O45         O  0.64777146  0.21355773  0.09770009    -0.90000
O46         O  0.59915145  0.17844054  0.13464675    -0.92800
C47         C  0.74447903  0.05950047  0.09328056     1.01000
C48         C  0.58901285  0.05399878  0.10521736     1.13900
C49         C  0.70515514  0.13846240  0.01901092     1.04700
O50         O  0.77828475  0.19168621  0.06452291    -0.95000
O51         O  0.73029000  0.24344641  0.09026060    -0.90700
O52         O  0.70157533  0.25428408  0.13081257    -0.83800
C53         C  0.72438726  0.26168269  0.11121654     1.11300
O54         O  0.54595376  0.16283369  0.05109746    -0.96900
Zr55       Zr  0.58705610  0.18348377  0.08839908     1.88900
O56         O  0.60499994  0.24721437  0.14452448    -0.73600
O57         O  0.68951834  0.23129719  0.04220264    -0.52800
O58         O  0.58378760  0.22188896  0.05272776    -0.97500
O59         O  0.51676446  0.17219406  0.10170586    -0.54700
O60         O  0.56407854  0.23449342  0.10954302    -0.74100
C61         C  0.57436313  0.25291190  0.12966536     0.98200
O62         O  0.69208634  0.23990471  0.18013005    -0.62900
O63         O  0.62532201  0.08045896  0.17512921    -0.57700
O64         O  0.64948148  0.19389003  0.18998498    -0.94400
O65         O  0.61612812  0.14542884  0.18844183    -0.92800
O66         O  0.73995078  0.09242296  0.16535081    -0.93200
O67         O  0.77204405  0.14963129  0.16888278    -0.92000
C68         C  0.63219908  0.16985977  0.20129549     1.17100
H69         H  0.67568449  0.07773391  0.12543345     0.33000
H70         H  0.74415179  0.19934375  0.12564971     0.43900
H71         H  0.57672090  0.18637085  0.14563336     0.37400
H72         H  0.63776920  0.16154636  0.04551667     0.33900
H73         H  0.82002876  0.13223280  0.12569251     0.25700
H74         H  0.71578860  0.23536376  0.03300681     0.31600
H75         H  0.60662460  0.23735429  0.05619431     0.37500
H76         H  0.71191260  0.08981616  0.17247820     0.32000
H77         H  0.59759439  0.07352309  0.18059141     0.30900
H78         H  0.54004523  0.12496663  0.17378211     0.32500
H79         H  0.51360618  0.18249617  0.11972138     0.31500
H80         H  0.75587517  0.16791843  0.17687547     0.35500
H81         H  0.72195649  0.23929125  0.17685114     0.28200
H82         H  0.64655678  0.06066801  0.02969170     0.32500
H83         H  0.52300807  0.17835009  0.04978198     0.35300
H84         H  0.63631645  0.06153229  0.16458579     0.27900
H85         H  0.68399474  0.26294487  0.17832903     0.40800
H86         H  0.79120667  0.20154322  0.08067801     0.30900
H87         H  0.80357439  0.14196380  0.09800058     0.38500
H88         H  0.51606099  0.14843517  0.10455320     0.30300
H89         H  0.67237212  0.21981399  0.02862808     0.30400
H90         H  0.61556893  0.08950515  0.02647568     0.30700
C91         C  0.74780058  0.10254678  0.36447002     0.86100
C92         C  0.74299734  0.10431871  0.39487075    -0.54100
C93         C  0.72674072  0.13258260  0.40506809     0.09100
C94         C  0.71780624  0.15777899  0.38397175     0.20000
C95         C  0.70601158  0.11156422  0.35324930    -0.54800
C96         C  0.68926359  0.14006345  0.36365976     0.09200
C97         C  0.77473842  0.13268942  0.35922306    -0.54400
C98         C  0.75868981  0.16167326  0.36886648     0.09700
H99         H  0.75246710  0.08494702  0.40754757     0.14200
H100        H  0.70607758  0.18113804  0.39273379     0.00000
H101        H  0.69155501  0.09551655  0.33856314     0.14500
H102        H  0.80498884  0.13133682  0.35041653     0.14300
Zr103      Zr  0.92076796  0.43627179  0.32582854     2.17500
O104        O  0.95154105  0.46456181  0.28886665    -0.51700
O105        O  0.86774652  0.47853291  0.32934255    -0.74900
O106        O  0.88931315  0.42284131  0.28320924    -0.81700
O107        O  0.00348342  0.46947559  0.37303657    -0.83400
O108        O  0.86225852  0.37199170  0.28244463    -0.79100
O109        O  0.97349569  0.47840610  0.33350163    -0.90700
O110        O  0.82672303  0.46397433  0.36311406    -0.76600
O111        O  0.86050868  0.40683760  0.33746773    -0.86100
O112        O  0.91192514  0.44584657  0.37244914    -0.85800
O113        O  0.93421753  0.37968733  0.31367352    -0.72600
O114        O  0.98089839  0.41472204  0.34569763    -0.84700
Zr115      Zr  0.92289007  0.33862083  0.39369620     2.26400
Zr116      Zr  0.87385763  0.35041974  0.32637536     2.06300
Zr117      Zr  0.97116037  0.42331128  0.39237933     2.10000
Zr118      Zr  0.85216021  0.41628178  0.38405015     1.78800
O119        O  0.04396213  0.41823298  0.40099741    -0.93500
O120        O  0.77967143  0.40616481  0.37652547    -0.41300
O121        O  0.91069551  0.39498553  0.40514054    -0.78000
O122        O  0.86224502  0.35943948  0.37336403    -0.96700
O123        O  0.93288000  0.32898776  0.34714253    -0.90000
O124        O  0.98391452  0.36676111  0.38197314    -0.92800
C125        C  0.83620067  0.48295513  0.34437123     1.01000
C126        C  0.99967737  0.48545120  0.35187245     1.13900
C127        C  0.87103436  0.39877158  0.27121184     1.04700
O128        O  0.80169887  0.34509327  0.31562036    -0.95000
O129        O  0.84694061  0.29997001  0.34408223    -0.90700
O130        O  0.87353103  0.29375668  0.38511179    -0.83800
C131        C  0.85025924  0.28431421  0.36565259     1.11300
O132        O  0.03134603  0.37689518  0.29702070    -0.96900
Zr133      Zr  0.99272866  0.35809443  0.33517050     1.88900
O134        O  0.97395367  0.29601076  0.38741310    -0.73600
O135        O  0.89385051  0.30600830  0.29548263    -0.52800
O136        O  0.99251423  0.31851484  0.29772908    -0.97500
O137        O  0.06397223  0.37033264  0.34578855    -0.54700
O138        O  0.01469956  0.30670138  0.35227907    -0.74100
C139        C  0.00333597  0.28875228  0.37123572     0.98200
O140        O  0.90838094  0.31200950  0.43509981    -0.62900
O141        O  0.96317963  0.47038472  0.42320199    -0.57700
O142        O  0.94537527  0.35707972  0.43844250    -0.94400
O143        O  0.97495110  0.40722127  0.43760612    -0.92800
O144        O  0.85413902  0.45738501  0.42035536    -0.93200
O145        O  0.81487332  0.39850744  0.42298307    -0.92000
C146        C  0.96319186  0.38206810  0.44977612     1.17100
H147        H  0.90936262  0.46887988  0.37695709     0.33000
H148        H  0.83803630  0.34809145  0.37911686     0.43900
H149        H  0.00689058  0.35898815  0.39184525     0.37400
H150        H  0.93911383  0.37699270  0.29477482     0.33900
H151        H  0.76574516  0.42552646  0.38468204     0.25700
H152        H  0.86775711  0.29707603  0.28842894     0.31600
H153        H  0.98015370  0.29848496  0.30474388     0.37500
H154        H  0.83319613  0.47360158  0.41587178     0.32000
H155        H  0.99112440  0.47532915  0.42966935     0.30900
H156        H  0.05154592  0.43874385  0.41083047     0.32500
H157        H  0.07959039  0.35146596  0.33829455     0.31500
H158        H  0.83547440  0.38705199  0.43347796     0.35500
H159        H  0.87827150  0.31160394  0.43683951     0.28200
H160        H  0.92907672  0.47680610  0.28078448     0.32500
H161        H  0.05243876  0.36010645  0.29309140     0.35300
H162        H  0.95628194  0.48899951  0.41212951     0.27900
H163        H  0.91685826  0.28905055  0.43185363     0.40800
H164        H  0.78726882  0.35165677  0.33231974     0.30900
H165        H  0.77607315  0.40829956  0.35715180     0.38500
H166        H  0.06616720  0.36853085  0.36526757     0.30300
H167        H  0.90680701  0.31673884  0.28026998     0.30400
H168        H  0.95930604  0.44741442  0.27538124     0.30700
C169        C  0.83027735  0.43883505  0.11699789     0.86100
C170        C  0.83502424  0.43984056  0.14726040    -0.54100
C171        C  0.85243552  0.41289104  0.15715199     0.09100
C172        C  0.86318009  0.38637063  0.13578506     0.20000
C173        C  0.87422668  0.43156751  0.10645727    -0.54800
C174        C  0.89200352  0.40397726  0.11614943     0.09200
C175        C  0.80756070  0.40713737  0.10953533    -0.54400
C176        C  0.82286717  0.37972354  0.12026663     0.09700
H177        H  0.82495814  0.46035124  0.15996709     0.14200
H178        H  0.87605088  0.36448684  0.14464620     0.00000
H179        H  0.88954803  0.44629508  0.09220486     0.14500
H180        H  0.77998018  0.40677437  0.09762737     0.14300
C181        C  0.49906672  0.43742895  0.13317645     0.86100
C182        C  0.51706043  0.40319215  0.12842794    -0.54100
C183        C  0.49715989  0.37918587  0.14120203     0.09100
C184        C  0.45978886  0.39104127  0.15721454     0.20000
C185        C  0.45401146  0.43223116  0.12375120    -0.54800
C186        C  0.43326665  0.40772935  0.13633640     0.09200
C187        C  0.49472694  0.44294919  0.16351917    -0.54400
C188        C  0.47468917  0.41880683  0.17605777     0.09700
H189        H  0.54187626  0.39776748  0.11472391     0.14200
H190        H  0.44550153  0.37118946  0.16825802     0.00000
H191        H  0.44038894  0.44493138  0.10769073     0.14500
H192        H  0.50747417  0.46405339  0.17433047     0.14300
C193        C  0.08651953  0.10265968  0.37649819     0.86100
C194        C  0.06375889  0.13477158  0.37111001    -0.54100
C195        C  0.07843042  0.16172164  0.38459061     0.09100
C196        C  0.11731817  0.15480918  0.40085291     0.20000
C197        C  0.13036302  0.11048052  0.36815550    -0.54800
C198        C  0.14744542  0.13724402  0.38083962     0.09200
C199        C  0.08672248  0.10168765  0.40714475    -0.54400
C200        C  0.10357091  0.12835152  0.41994574     0.09700
H201        H  0.03779895  0.13743717  0.35829022     0.14200
H202        H  0.12950115  0.17695038  0.41140961     0.00000
H203        H  0.14531058  0.09680880  0.35220599     0.14500
H204        H  0.07535419  0.08097951  0.41785951     0.14300
Zr205      Zr  0.16460285  0.19372939  0.16155729     2.17500
O206        O  0.13426831  0.22861806  0.19675173    -0.51700
O207        O  0.22090164  0.23314490  0.15928537    -0.74900
O208        O  0.18775915  0.18093008  0.20693175    -0.81700
O209        O  0.09653919  0.22904623  0.10914059    -0.83400
O210        O  0.21293951  0.12949546  0.20576443    -0.79100
O211        O  0.11755860  0.23831073  0.15174123    -0.90700
O212        O  0.26212197  0.21722709  0.12494589    -0.76600
O213        O  0.22417833  0.16196273  0.15176900    -0.86100
O214        O  0.17938968  0.19886704  0.11520896    -0.85800
O215        O  0.14509432  0.13867162  0.17135858    -0.72600
O216        O  0.10588582  0.17314896  0.13722417    -0.84700
Zr217      Zr  0.16318028  0.09174984  0.09045810     2.26400
Zr218      Zr  0.20497514  0.10701513  0.16075622     2.06300
Zr219      Zr  0.12178439  0.17789555  0.09103178     2.10000
Zr220      Zr  0.23816779  0.16656506  0.10549410     1.78800
O221        O  0.04969650  0.18005162  0.07936509    -0.93500
O222        O  0.30520969  0.14983084  0.12054021    -0.41300
O223        O  0.18119914  0.14661958  0.08038465    -0.78000
O224        O  0.22203137  0.11155412  0.11456691    -0.96700
O225        O  0.14756090  0.08585610  0.13640793    -0.90000
O226        O  0.10305441  0.12295562  0.09974624    -0.92800
C227        C  0.25227583  0.23691652  0.14414500     1.01000
C228        C  0.09706847  0.24590868  0.13112183     1.13900
C229        C  0.20429574  0.15648239  0.21821914     1.04700
O230        O  0.27652029  0.10256800  0.17310165    -0.95000
O231        O  0.23090014  0.05531371  0.14334831    -0.90700
O232        O  0.20518840  0.04555145  0.10188405    -0.83800
C233        C  0.22689117  0.03788030  0.12179706     1.11300
O234        O  0.03937536  0.14330253  0.17670028    -0.96900
Zr235      Zr  0.08846095  0.11772236  0.14581081     1.88900
O236        O  0.10889242  0.05133171  0.09189423    -0.73600
O237        O  0.18220685  0.06482242  0.19031037    -0.52800
O238        O  0.08145702  0.08654353  0.18588599    -0.97500
O239        O  0.01938454  0.12457994  0.12898864    -0.54700
O240        O  0.07055017  0.06346020  0.12865453    -0.74100
C241        C  0.08046755  0.04489295  0.10853832     0.98200
O242        O  0.19421646  0.06285526  0.05217417    -0.62900
O243        O  0.13781525  0.22184724  0.06140766    -0.57700
O244        O  0.14463134  0.10374128  0.04480771    -0.94400
O245        O  0.11979474  0.15552153  0.04561359    -0.92800
O246        O  0.25115763  0.20225837  0.06875933    -0.93200
O247        O  0.27926658  0.14409438  0.06869845    -0.92000
C248        C  0.12986431  0.12862574  0.03343965     1.17100
H249        H  0.18389040  0.22142825  0.11108699     0.33000
H250        H  0.24593633  0.09887019  0.10976495     0.43900
H251        H  0.08062530  0.11542628  0.08868809     0.37400
H252        H  0.13774094  0.13719635  0.18988269     0.33900
H253        H  0.32489094  0.16445502  0.11185567     0.25700
H254        H  0.20729806  0.05804275  0.19945823     0.31600
H255        H  0.08998573  0.06408728  0.18050153     0.37500
H256        H  0.23258264  0.22102178  0.07193607     0.32000
H257        H  0.15954564  0.21302696  0.04941631     0.30900
H258        H  0.04552854  0.16218556  0.06582436     0.32500
H259        H  0.01319463  0.10436306  0.11834222     0.31500
H260        H  0.26135523  0.12755092  0.05977433     0.35500
H261        H  0.22407631  0.06359960  0.05525393     0.28200
H262        H  0.15747531  0.23847184  0.20678663     0.32500
H263        H  0.01970421  0.12590113  0.18120385     0.35300
H264        H  0.11347266  0.22341841  0.04994362     0.27900
H265        H  0.18634274  0.03960507  0.05338033     0.40800
H266        H  0.29133303  0.09813436  0.15613754     0.30900
H267        H  0.30602764  0.15664906  0.13961463     0.38500
H268        H  0.02179484  0.14171894  0.11577193     0.30300
H269        H  0.16585913  0.07642153  0.20431717     0.30400
H270        H  0.12086257  0.21367459  0.20914470     0.30700
C271        C  0.25086025  0.18406152  0.37732538     0.86100
C272        C  0.24487711  0.18813902  0.34720442    -0.54100
C273        C  0.22749164  0.16204595  0.33387773     0.09100
C274        C  0.21783058  0.13349026  0.35194740     0.20000
C275        C  0.20859376  0.17412247  0.38820322    -0.54800
C276        C  0.19009309  0.14863314  0.37449236     0.09200
C277        C  0.27480342  0.15201847  0.37942904    -0.54400
C278        C  0.25858917  0.12593719  0.36572746     0.09700
H279        H  0.25447799  0.20989179  0.33715978     0.14200
H280        H  0.20533155  0.11201864  0.34070190     0.00000
H281        H  0.19546421  0.18473505  0.40608617     0.14500
H282        H  0.30169396  0.14935248  0.39166865     0.14300
Zr283      Zr  0.42318596  0.35440575  0.41604706     2.17500
O284        O  0.45718560  0.32213211  0.44904767    -0.51700
O285        O  0.37156164  0.31126311  0.41284135    -0.74900
O286        O  0.40000522  0.36902938  0.46141227    -0.81700
O287        O  0.49916162  0.32056566  0.36362892    -0.83400
O288        O  0.36863447  0.41859258  0.46194652    -0.79100
O289        O  0.47271015  0.31145334  0.40468171    -0.90700
O290        O  0.33029975  0.32152479  0.37804724    -0.76600
O291        O  0.36076948  0.38161572  0.40657463    -0.86100
O292        O  0.41196339  0.34565567  0.36954249    -0.85800
O293        O  0.43520287  0.41113042  0.42781731    -0.72600
O294        O  0.48164178  0.37639827  0.39384102    -0.84700
Zr295      Zr  0.41922937  0.45145424  0.34872087     2.26400
Zr296      Zr  0.37280746  0.43854188  0.41705452     2.06300
Zr297      Zr  0.46914070  0.36897343  0.34719772     2.10000
Zr298      Zr  0.35010744  0.37287121  0.36006598     1.78800
O299        O  0.54206078  0.37329440  0.33803318    -0.93500
O300        O  0.27960022  0.38137839  0.37448615    -0.41300
O301        O  0.40681115  0.39536409  0.33660957    -0.78000
O302        O  0.35981169  0.42973634  0.37041517    -0.96700
O303        O  0.43103105  0.46092222  0.39505360    -0.90000
O304        O  0.48141428  0.42499844  0.35850473    -0.92800
C305        C  0.34215088  0.30388503  0.39691535     1.01000
C306        C  0.49573483  0.30406635  0.38455988     1.13900
C307        C  0.38164148  0.39318717  0.47336413     1.04700
O308        O  0.30006852  0.43343543  0.42641912    -0.95000
O309        O  0.34397896  0.48893273  0.40057054    -0.90700
O310        O  0.36923757  0.99565006  0.36094923    -0.83800
C311        C  0.34523514  0.00431127  0.38026344     1.11300
O312        O  0.53196230  0.41344979  0.44228722    -0.96900
Zr313      Zr  0.49230278  0.43283483  0.40512097     1.88900
O314        O  0.47189301  0.99543416  0.35530705    -0.73600
O315        O  0.38096539  0.48471093  0.44863721    -0.52800
O316        O  0.49088290  0.47184990  0.44301178    -0.97500
O317        O  0.56281597  0.42113218  0.39200851    -0.54700
O318        O  0.51410202  0.48339662  0.38741204    -0.74100
C319        C  0.50322791  0.00247300  0.36970575     0.98200
O320        O  0.39502469  0.47984245  0.31009157    -0.62900
O321        O  0.45829981  0.32522825  0.31372272    -0.57700
O322        O  0.44255642  0.43752524  0.30338767    -0.94400
O323        O  0.47420607  0.38843506  0.30250714    -0.92800
O324        O  0.34551542  0.33398494  0.32234469    -0.93200
O325        O  0.30809310  0.39036069  0.32352458    -0.92000
C326        C  0.46169019  0.41392130  0.29115975     1.17100
H327        H  0.41009388  0.32263791  0.36492791     0.33000
H328        H  0.33524407  0.44075765  0.36528500     0.43900
H329        H  0.50381028  0.43325274  0.34809229     0.37400
H330        H  0.44199444  0.41447439  0.44633848     0.33900
H331        H  0.26384161  0.36410427  0.36473257     0.25700
H332        H  0.35487605  0.48573727  0.45871407     0.31600
H333        H  0.51873532  0.48121207  0.44421872     0.37500
H334        H  0.37192566  0.32232030  0.32197015     0.32000
H335        H  0.48610683  0.31823135  0.30820921     0.30900
H336        H  0.54747130  0.35614104  0.32406637     0.32500
H337        H  0.57979223  0.43671945  0.40267726     0.31500
H338        H  0.32006193  0.41153212  0.31860072     0.35500
H339        H  0.36483479  0.47809449  0.31050500     0.28200
H340        H  0.43581345  0.31524003  0.46168438     0.32500
H341        H  0.55338452  0.43007129  0.44612409     0.35300
H342        H  0.44723637  0.30664599  0.32353433     0.27900
H343        H  0.40115954  0.50329324  0.31364614     0.40800
H344        H  0.28672677  0.43606137  0.40905278     0.30900
H345        H  0.27891693  0.37477616  0.39320084     0.38500
H346        H  0.56547074  0.42845848  0.37357102     0.30300
H347        H  0.40140534  0.47762791  0.46161181     0.30400
H348        H  0.47472140  0.33772512  0.45930003     0.30700
C349        C  0.33164536  0.35958852  0.12993442     0.86100
C350        C  0.33794544  0.35595470  0.09948422    -0.54100
C351        C  0.35307147  0.38317113  0.08799124     0.09100
C352        C  0.36257164  0.41119080  0.10827368     0.20000
C353        C  0.37350753  0.36953703  0.14060684    -0.54800
C354        C  0.39080711  0.39615068  0.12928674     0.09200
C355        C  0.30514765  0.39022982  0.13332463    -0.54400
C356        C  0.32123322  0.41758096  0.12251002     0.09700
H357        H  0.33181449  0.33342808  0.08823202     0.14200
H358        H  0.37503680  0.43272314  0.09850816     0.00000
H359        H  0.38792563  0.35527804  0.15548403     0.14500
H360        H  0.27503247  0.39025046  0.14213002     0.14300
C361        C  0.33566575  0.38470800  0.01271291    -0.06100
C362        C  0.37549109  0.39189129  0.50238022    -0.00200
C363        C  0.40496792  0.40270773  0.02276315    -0.08800
C364        C  0.39697937  0.39788822  0.04988784    -0.06200
C365        C  0.35897346  0.38629294  0.05872180    -0.00200
C366        C  0.32711396  0.38071379  0.03988534    -0.08700
C367        C  0.28375568  0.37194627  0.04807296     0.61700
H368        H  0.31176619  0.38255094  0.49730687     0.12400
H369        H  0.42056838  0.40303066  0.06448728     0.12400
C370        C  0.44587860  0.41648733  0.01418739     0.61900
F371        F  0.25665161  0.37448614  0.02724376    -0.23200
F372        F  0.27062723  0.39285203  0.06856394    -0.20600
F373        F  0.28207802  0.34015544  0.05608384    -0.20300
F374        F  0.43982454  0.44425832  0.99999393    -0.20300
F375        F  0.46562841  0.38348429  0.49366055    -0.20600
F376        F  0.47039710  0.42489203  0.03574535    -0.23300
C377        C  0.31638650  0.21457002  0.38757661    -0.06100
C378        C  0.27315327  0.21443605  0.38984183    -0.00200
C379        C  0.25388481  0.24497471  0.39711955    -0.08800
C380        C  0.27844741  0.27286963  0.40220063    -0.06200
C381        C  0.32083307  0.27230584  0.39910125    -0.00200
C382        C  0.34036717  0.24263947  0.39215598    -0.08700
C383        C  0.38592080  0.24140573  0.38639011     0.61700
H384        H  0.33183477  0.19324249  0.37945385     0.12400
H385        H  0.26452451  0.29623945  0.40729410     0.12400
C386        C  0.20794877  0.24986282  0.39838628     0.61900
F387        F  0.39933538  0.20997980  0.38030744    -0.23200
F388        F  0.40752520  0.25312735  0.40829470    -0.20600
F389        F  0.39431554  0.26038741  0.36491236    -0.20300
F390        F  0.19229089  0.23701000  0.42130010    -0.20300
F391        F  0.18994878  0.23543779  0.37623683    -0.20600
F392        F  0.19741137  0.28258162  0.39889830    -0.23300
C393        C  0.26078251  0.06991500  0.38214348    -0.06100
C394        C  0.27869003  0.09352799  0.36626605    -0.00200
C395        C  0.31827001  0.08779829  0.35539933    -0.08800
C396        C  0.33813499  0.05849818  0.36066940    -0.06200
C397        C  0.32082172  0.03479015  0.37685429    -0.00200
C398        C  0.28133686  0.04081066  0.38811885    -0.08700
C399        C  0.26077908  0.01717108  0.40651143     0.61700
H400        H  0.23113723  0.07530327  0.39092805     0.12400
H401        H  0.36839615  0.05447153  0.35228140     0.12400
C402        C  0.34177443  0.11145578  0.33838793     0.61900
F403        F  0.22171761  0.02708579  0.41370528    -0.23200
F404        F  0.27567947  0.50849588  0.42171750    -0.20600
F405        F  0.26018724  0.48489655  0.38162599    -0.20300
F406        F  0.37703494  0.12123853  0.35151272    -0.20300
F407        F  0.32012917  0.13903985  0.33262763    -0.20600
F408        F  0.35253895  0.09575593  0.31452985    -0.23300
C409        C  0.24743926  0.14252988  0.28803824    -0.06100
C410        C  0.22079424  0.16109907  0.30435692    -0.00200
C411        C  0.18908284  0.17864575  0.29233702    -0.08800
C412        C  0.18540110  0.17719972  0.26428145    -0.06200
C413        C  0.21225256  0.15868981  0.24774443    -0.00200
C414        C  0.24451370  0.14148462  0.26000560    -0.08700
C415        C  0.27661941  0.12248090  0.24391532     0.61700
H416        H  0.27078997  0.12858643  0.29746863     0.12400
H417        H  0.16084061  0.19017351  0.25506400     0.12400
C418        C  0.15863403  0.19816420  0.30922734     0.61900
F419        F  0.30974050  0.11450263  0.25933751    -0.23200
F420        F  0.29119199  0.14104158  0.22348996    -0.20600
F421        F  0.25988291  0.09371115  0.23356367    -0.20300
F422        F  0.17833291  0.22414044  0.32198443    -0.20300
F423        F  0.14124245  0.17846899  0.32794380    -0.20600
F424        F  0.12746075  0.21043993  0.29413543    -0.23300
C425        C  0.26078392  0.29505220  0.15956722    -0.06100
C426        C  0.27790300  0.26676873  0.14757980    -0.00200
C427        C  0.31863041  0.26839961  0.13763167    -0.08800
C428        C  0.33617055  0.29915697  0.13410598    -0.06200
C429        C  0.31589658  0.32805218  0.14208228    -0.00200
C430        C  0.28148514  0.32516965  0.15936473    -0.08700
C431        C  0.26974816  0.35017850  0.18106507     0.61700
H432        H  0.23178063  0.29353252  0.16999383     0.12400
H433        H  0.36514259  0.30083937  0.12368066     0.12400
C434        C  0.34381218  0.23834432  0.13028268     0.61900
F435        F  0.26501359  0.33470718  0.20488050    -0.23200
F436        F  0.23298782  0.36457083  0.17500793    -0.20600
F437        F  0.29961155  0.37379467  0.18510020    -0.20300
F438        F  0.33347694  0.22641413  0.10512447    -0.20300
F439        F  0.33731041  0.21463679  0.14869420    -0.20600
F440        F  0.38519865  0.24551325  0.13024528    -0.23300
C441        C  0.29220582  0.00966960  0.12506679    -0.06100
C442        C  0.25035594  0.00742730  0.11988172    -0.00200
C443        C  0.22930272  0.47372396  0.11912670    -0.08800
C444        C  0.25491563  0.44626801  0.11789012    -0.06200
C445        C  0.29745905  0.44872575  0.12220995    -0.00200
C446        C  0.31489959  0.48020164  0.12736936    -0.08700
C447        C  0.35955125  0.48610885  0.13374507     0.61700
H448        H  0.30590754  0.03368785  0.12805175     0.12400
H449        H  0.24152224  0.42248182  0.11360790     0.12400
C450        C  0.18330145  0.46948071  0.11690123     0.61900
F451        F  0.35998981  0.01248811  0.15726074    -0.23200
F452        F  0.38153733  0.48929559  0.11045413    -0.20600
F453        F  0.37496495  0.46102068  0.14782317    -0.20300
F454        F  0.16970885  0.48299944  0.09385749    -0.20300
F455        F  0.16423790  0.48481488  0.13857765    -0.20600
F456        F  0.17187358  0.43687757  0.11629258    -0.23300
C457        C  0.15095133  0.12434171  0.45820908    -0.06100
C458        C  0.11100883  0.12963005  0.44929072    -0.00200
C459        C  0.07917409  0.13426271  0.46832888    -0.08800
C460        C  0.08345469  0.12887072  0.99510427    -0.06200
C461        C  0.12355766  0.12681280  0.00427656    -0.00200
C462        C  0.15637019  0.12743330  0.98580548    -0.08700
C463        C  0.20029160  0.12671128  0.99503547     0.61700
H464        H  0.17493206  0.12082975  0.44344316     0.12400
H465        H  0.05895220  0.12928337  0.00969562     0.12400
C466        C  0.03585667  0.14133670  0.46011481     0.61900
F467        F  0.23066272  0.11674541  0.47300288    -0.23200
F468        F  0.20783005  0.09738512  0.00662889    -0.20600
F469        F  0.20722520  0.15210223  0.01340264    -0.20300
F470        F  0.02049225  0.11514777  0.44516556    -0.20300
F471        F  0.03582666  0.16911235  0.44545918    -0.20600
F472        F  0.01011812  0.14669049  0.48179464    -0.23300
C473        C  0.43597323  0.43019969  0.24755735    -0.06100
C474        C  0.46734912  0.41559533  0.26177289    -0.00200
C475        C  0.50163250  0.40241227  0.24746711    -0.08800
C476        C  0.50288969  0.40453547  0.21956639    -0.06200
C477        C  0.47094616  0.41832291  0.20553664    -0.00200
C478        C  0.43681420  0.43125997  0.21967761    -0.08700
C479        C  0.40121691  0.44580895  0.20537971     0.61700
H480        H  0.40983693  0.43993456  0.25847451     0.12400
H481        H  0.52870743  0.39486723  0.20830253     0.12400
C482        C  0.53667773  0.38572363  0.26105104     0.61900
F483        F  0.37098511  0.45707147  0.22276529    -0.23200
F484        F  0.38406936  0.42222695  0.18848927    -0.20600
F485        F  0.41495018  0.47182739  0.19108849    -0.20300
F486        F  0.52399402  0.35534276  0.26891527    -0.20300
F487        F  0.54958307  0.40435764  0.28294049    -0.20600
F488        F  0.56998092  0.38128436  0.24418108    -0.23300
C489        C  0.03327508  0.07098494  0.34857882    -0.06100
C490        C  0.06956757  0.07041399  0.36366711    -0.00200
C491        C  0.08657329  0.03899954  0.36867379    -0.08800
C492        C  0.06271415  0.01096498  0.36268252    -0.06200
C493        C  0.02370708  0.01261256  0.35140622    -0.00200
C494        C  0.00960190  0.04294688  0.34301598    -0.08700
C495        C  0.96827475  0.04624558  0.33006915     0.61700
H496        H  0.02176886  0.09344409  0.34163878     0.12400
H497        H  0.07660732  0.48693909  0.36655482     0.11200
C498        C  0.12981487  0.03368855  0.37924211     0.61900
F499        F  0.95905340  0.07825491  0.32472715    -0.23200
F500        F  0.93842123  0.03492383  0.34702089    -0.20600
F501        F  0.96782474  0.02835688  0.30620952    -0.20300
F502        F  0.13680962  0.05090706  0.40284765    -0.20300
F503        F  0.15835307  0.04276516  0.36060377    -0.20600
F504        F  0.14268224  0.49901139  0.37904568    -0.23300
C505        C  0.99971298  0.23083994  0.38262861    -0.06100
C506        C  0.02400103  0.25678372  0.37434724    -0.00200
C507        C  0.06624115  0.25136642  0.36947439    -0.08800
C508        C  0.08281146  0.22039135  0.37440678    -0.06200
C509        C  0.05839866  0.19434366  0.38278308    -0.00200
C510        C  0.01557273  0.19972029  0.38678087    -0.08700
C511        C  0.98403336  0.17479657  0.39555697     0.61700
H512        H  0.96722306  0.23483284  0.38567132     0.12400
H513        H  0.11492033  0.21585397  0.37070821     0.12400
C514        C  0.09359569  0.27803770  0.35900648     0.61900
F515        F  0.96352960  0.18723873  0.41785374    -0.23200
F516        F  0.99999482  0.14517808  0.40191764    -0.20600
F517        F  0.95593278  0.16940226  0.37540863    -0.20300
F518        F  0.09067449  0.30581543  0.37541691    -0.20300
F519        F  0.08222360  0.28498007  0.33342355    -0.20600
F520        F  0.13401857  0.26896612  0.35792658    -0.23300
C521        C  0.83943446  0.38314167  0.19807747    -0.06100
C522        C  0.85867667  0.40949263  0.18611450    -0.00200
C523        C  0.87962096  0.43313451  0.20229699    -0.08800
C524        C  0.88047535  0.42926863  0.22984058    -0.06200
C525        C  0.86270758  0.40220631  0.24208264    -0.00200
C526        C  0.84017804  0.37930862  0.22584163    -0.08700
C527        C  0.81544239  0.35173717  0.23735511     0.61700
H528        H  0.82276173  0.36585485  0.18537330     0.12400
H529        H  0.89662721  0.44760076  0.24180202     0.12400
C530        C  0.90200175  0.46280127  0.19200576     0.61900
F531        F  0.79057793  0.33641769  0.21847606    -0.23200
F532        F  0.79044219  0.36398481  0.25762905    -0.20600
F533        F  0.84130779  0.32846484  0.24693843    -0.20300
F534        F  0.87948394  0.49052192  0.19841878    -0.20300
F535        F  0.90888231  0.46106355  0.16490503    -0.20600
F536        F  0.93980351  0.46586062  0.20405342    -0.23300
C537        C  0.79410826  0.06636338  0.33418043    -0.06100
C538        C  0.76345932  0.06873129  0.35407276    -0.00200
C539        C  0.74959674  0.03880767  0.36471851    -0.08800
C540        C  0.77395452  0.01097181  0.36125165    -0.06200
C541        C  0.80838254  0.00968932  0.34436314    -0.00200
C542        C  0.81526051  0.03681957  0.32809220    -0.08700
C543        C  0.84290357  0.03459089  0.30382219     0.61700
H544        H  0.80134272  0.08766846  0.32307309     0.12400
H545        H  0.76134709  0.48858843  0.36423102     0.12400
C546        C  0.70986728  0.03372382  0.37983588     0.61900
F547        F  0.83887360  0.06147181  0.28823365    -0.23200
F548        F  0.83301001  0.00709485  0.28832286    -0.20600
F549        F  0.88304243  0.03286288  0.31144285    -0.20300
F550        F  0.68342219  0.05938598  0.37847243    -0.20300
F551        F  0.71810188  0.02836124  0.40623221    -0.20600
F552        F  0.68591204  0.50830894  0.36092160    -0.23300
C553        C  0.78928334  0.21070368  0.39110261    -0.06100
C554        C  0.78056247  0.19351081  0.36725507    -0.00200
C555        C  0.79199188  0.20714749  0.34286621    -0.08800
C556        C  0.81481557  0.23648133  0.34344767    -0.06200
C557        C  0.82557427  0.25326693  0.36747621    -0.00200
C558        C  0.81105975  0.24048128  0.39178702    -0.08700
C559        C  0.81851931  0.25729697  0.41864059     0.61700
H560        H  0.77954428  0.20008095  0.40948004     0.12400
H561        H  0.82485877  0.24631363  0.32483892     0.12400
C562        C  0.77887719  0.19157571  0.31631865     0.61900
F563        F  0.79388365  0.24475078  0.43830147    -0.23200
F564        F  0.81015330  0.29028174  0.41775505    -0.20600
F565        F  0.85866825  0.25250632  0.42563206    -0.20300
F566        F  0.73747975  0.18454262  0.31689790    -0.20300
F567        F  0.80039959  0.16313422  0.31100009    -0.20600
F568        F  0.78593028  0.21211822  0.29557492    -0.23300
C569        C  0.50503499  0.99009984  0.10725447    -0.06100
C570        C  0.52623568  0.46461622  0.12139360    -0.00200
C571        C  0.56900511  0.46865023  0.12786965    -0.08800
C572        C  0.58738356  0.99788232  0.11917417    -0.06200
C573        C  0.56748719  0.02231474  0.10591069    -0.00200
C574        C  0.52586668  0.01849428  0.09948644    -0.08700
C575        C  0.50369448  0.04479801  0.08485555     0.61700
H576        H  0.47299826  0.98823376  0.10285660     0.12400
H577        H  0.61949936  0.00164467  0.12354956     0.12400
C578        C  0.59486567  0.44395145  0.14251375     0.61900
F579        F  0.46294669  0.03704995  0.08072172    -0.23200
F580        F  0.52213377  0.04861675  0.06035619    -0.20600
F581        F  0.50547766  0.07414373  0.09935995    -0.20300
F582        F  0.60472669  0.41783450  0.12556097    -0.20300
F583        F  0.57538043  0.43288154  0.16479636    -0.20600
F584        F  0.63146085  0.45748221  0.15123660    -0.23300
C585        C  0.52739313  0.29523681  0.11361749    -0.06100
C586        C  0.55012727  0.28342902  0.13490940    -0.00200
C587        C  0.54951496  0.30151418  0.15971715    -0.08800
C588        C  0.53041815  0.33226170  0.16108583    -0.06200
C589        C  0.51075455  0.34479062  0.13914444    -0.00200
C590        C  0.50704054  0.32536105  0.11544732    -0.08700
C591        C  0.48101323  0.33595535  0.09241905     0.61700
H592        H  0.52643338  0.28107890  0.09502335     0.12400
H593        H  0.53181393  0.34732619  0.17920269     0.12400
C594        C  0.56801354  0.28882369  0.18489562     0.61900
F595        F  0.47917974  0.31216955  0.07213334    -0.23200
F596        F  0.49677910  0.36400562  0.08190675    -0.20600
F597        F  0.44159627  0.34181551  0.10129076    -0.20300
F598        F  0.61013462  0.29034975  0.18342360    -0.20300
F599        F  0.55557729  0.25693386  0.18823831    -0.20600
F600        F  0.55575788  0.30708518  0.20727864    -0.23300
C601        C  0.75654860  0.14481380  0.44943381    -0.06100
C602        C  0.72152258  0.13796932  0.43422448    -0.00200
C603        C  0.68399227  0.13165759  0.44722885    -0.08800
C604        C  0.68271143  0.13235181  0.47506622    -0.06200
C605        C  0.71746272  0.13942380  0.49029165    -0.00200
C606        C  0.75514712  0.14597103  0.47746031    -0.08700
C607        C  0.79380060  0.15307648  0.49318907     0.61700
H608        H  0.78516018  0.14883529  0.43909865     0.12400
H609        H  0.65410078  0.12794726  0.48529896     0.12400
C610        C  0.64557309  0.12358179  0.43185993     0.61900
F611        F  0.82800944  0.15371352  0.47688330    -0.23200
F612        F  0.79092183  0.11496121  0.00995382    -0.20600
F613        F  0.78944530  0.16989899  0.00884816    -0.20300
F614        F  0.61285797  0.11647877  0.44826313    -0.20300
F615        F  0.65260246  0.09675392  0.41529712    -0.20600
F616        F  0.63497048  0.14976120  0.41708952    -0.23300
C617        C  0.74457814  0.00335273  0.10700369    -0.06100
C618        C  0.76480140  0.02745041  0.09325971    -0.00200
C619        C  0.80569744  0.02257507  0.08522725    -0.08800
C620        C  0.82562708  0.99358887  0.09203470    -0.06200
C621        C  0.80701969  0.46941195  0.10826796    -0.00200
C622        C  0.76445858  0.47500044  0.11443889    -0.08700
C623        C  0.73613010  0.45397240  0.13108316     0.61700
H624        H  0.71310247  0.00780025  0.11305140     0.12400
H625        H  0.86044167  0.49183544  0.09113497     0.12400
C626        C  0.82794989  0.04816718  0.06957973     0.61900
F627        F  0.71583188  0.47381073  0.14971014    -0.23200
F628        F  0.75499291  0.43039854  0.14521562    -0.20600
F629        F  0.70744952  0.43903488  0.11453811    -0.20300
F630        F  0.83468584  0.07577676  0.08564927    -0.20300
F631        F  0.80451629  0.05641202  0.04807809    -0.20600
F632        F  0.86532254  0.03702761  0.06001957    -0.23300
C633        C  0.79022101  0.28972886  0.11058633    -0.06100
C634        C  0.74801563  0.29221165  0.11378482    -0.00200
C635        C  0.73020142  0.32297514  0.11971195    -0.08800
C636        C  0.75599979  0.35042645  0.12245843    -0.06200
C637        C  0.79875127  0.34832737  0.11886680    -0.00200
C638        C  0.81585352  0.31714785  0.11264424    -0.08700
C639        C  0.86049077  0.31175433  0.10744583     0.61700
H640        H  0.80324224  0.26573634  0.10655011     0.12400
H641        H  0.74261326  0.37390794  0.12746116     0.12400
C642        C  0.68423475  0.32697995  0.12238295     0.61900
F643        F  0.86687318  0.28462768  0.09061969    -0.23200
F644        F  0.88015394  0.30707761  0.13120818    -0.20600
F645        F  0.87676132  0.33815700  0.09524707    -0.20300
F646        F  0.67049457  0.31221255  0.14498303    -0.20300
F647        F  0.66512102  0.31277959  0.10034676    -0.20600
F648        F  0.67303952  0.35953030  0.12432033    -0.23300
C649        C  0.58128882  0.07259665  0.36977228    -0.06100
C650        C  0.56280641  0.09308062  0.35197983    -0.00200
C651        C  0.52612644  0.08320005  0.33919638    -0.08800
C652        C  0.50848961  0.05351986  0.34564665    -0.06200
C653        C  0.52588733  0.03311154  0.36427282    -0.00200
C654        C  0.56342862  0.04284356  0.37667627    -0.08700
C655        C  0.58482975  0.02277963  0.39722078     0.61700
H656        H  0.60934130  0.08088874  0.37890571     0.12400
H657        H  0.48016383  0.04653722  0.33587623     0.12400
C658        C  0.50419289  0.10203540  0.31824118     0.61900
F659        F  0.62067931  0.03715534  0.40615171    -0.23200
F660        F  0.59410791  0.48976398  0.38053712    -0.20600
F661        F  0.55991984  0.01952106  0.41926507    -0.20300
F662        F  0.52427462  0.13016656  0.31170292    -0.20300
F663        F  0.46533170  0.10997163  0.32725576    -0.20600
F664        F  0.50071357  0.08256942  0.29526596    -0.23300
C665        C  0.57640929  0.23821486  0.38476033    -0.06100
C666        C  0.55819674  0.21399904  0.36770532    -0.00200
C667        C  0.51662963  0.21937324  0.35923052    -0.08800
C668        C  0.49730968  0.24843400  0.36756391    -0.06200
C669        C  0.51644446  0.27242380  0.38321304    -0.00200
C670        C  0.55649977  0.26770344  0.39204251    -0.08700
C671        C  0.57836605  0.29445482  0.40809942     0.61700
H672        H  0.60711640  0.23526322  0.39157587     0.12400
H673        H  0.46718684  0.25396259  0.36050181     0.12400
C674        C  0.49122434  0.19635846  0.34093737     0.61900
F675        F  0.61795793  0.28578993  0.41417041    -0.23200
F676        F  0.55733181  0.30090126  0.43162910    -0.20600
F677        F  0.58005632  0.32256708  0.39377550    -0.20300
F678        F  0.48339904  0.16731423  0.35282675    -0.20300
F679        F  0.51037412  0.19087162  0.31678448    -0.20600
F680        F  0.45329291  0.20909933  0.33519956    -0.23300
C681        C  0.63357198  0.18963604  0.27653613    -0.06100
C682        C  0.62230720  0.15916888  0.28644408    -0.00200
C683        C  0.62110851  0.13158500  0.26830732    -0.08800
C684        C  0.62490735  0.13700620  0.24106090    -0.06200
C685        C  0.63170780  0.16811246  0.23094844    -0.00200
C686        C  0.63864666  0.19475257  0.24928135    -0.08700
C687        C  0.65265338  0.22813584  0.24087496     0.61700
H688        H  0.63863004  0.20983967  0.29062761     0.12400
H689        H  0.62352414  0.11622890  0.22718432     0.12400
C690        C  0.61824045  0.09625729  0.27640723     0.61900
F691        F  0.65540530  0.25051399  0.26215051    -0.23200
F692        F  0.62553125  0.24049116  0.22293357    -0.20600
F693        F  0.69113833  0.22524417  0.22966982    -0.20300
F694        F  0.58634879  0.09206476  0.29383896    -0.20300
F695        F  0.65473614  0.08736048  0.28770810    -0.20600
F696        F  0.61152320  0.07480470  0.25489870    -0.23300
C697        C  0.05424078  0.33279671  0.13530490    -0.06100
C698        C  0.01891554  0.32870651  0.11913261    -0.00200
C699        C  0.00660042  0.29567270  0.11273675    -0.08800
C700        C  0.03197428  0.26993621  0.11940445    -0.06200
C701        C  0.06958578  0.27474492  0.13184136    -0.00200
C702        C  0.08042095  0.30655457  0.14106592    -0.08700
C703        C  0.12002069  0.31291914  0.15593506     0.61700
H704        H  0.06216609  0.35660634  0.14343484     0.12400
H705        H  0.02292760  0.24516675  0.11352235     0.12400
C706        C  0.96851106  0.28440364  0.09808728     0.61900
F707        F  0.12584591  0.34579242  0.16222094    -0.23200
F708        F  0.15274776  0.30218830  0.14044984    -0.20600
F709        F  0.11940786  0.29647357  0.17939193    -0.20300
F710        F  0.97942576  0.26848884  0.07434638    -0.20300
F711        F  0.94298887  0.30917608  0.09250708    -0.20600
F712        F  0.94697278  0.26286672  0.11347372    -0.23300
C713        C  0.02293962  0.46905604  0.07942699    -0.06100
C714        C  0.01691419  0.45172962  0.10269431    -0.00200
C715        C  0.02737477  0.46664872  0.12767479    -0.08800
C716        C  0.04625831  0.49740920  0.12823591    -0.06200
C717        C  0.05865025  0.01324431  0.10545667    -0.00200
C718        C  0.04437447  0.99996570  0.08074872    -0.08700
C719        C  0.05025336  0.01762462  0.05504234     0.61700
H720        H  0.01408704  0.45754350  0.06059353     0.12400
H721        H  0.05614630  0.50826523  0.14712096     0.12400
C722        C  0.02001988  0.45049662  0.15398420     0.61900
F723        F  0.02809392  0.00304984  0.03441032    -0.23200
F724        F  0.09108393  0.01714333  0.04780795    -0.20600
F725        F  0.03732184  0.04962908  0.05834618    -0.20300
F726        F  0.05246805  0.43033626  0.15927203    -0.20300
F727        F  0.98420346  0.43249689  0.15352526    -0.20600
F728        F  0.01670973  0.47363645  0.17467447    -0.23300
C729        C  0.99994316  0.39573311  0.02247466    -0.06100
C730        C  0.96778636  0.38215712  0.03692386    -0.00200
C731        C  0.93334810  0.36917672  0.02325771    -0.08800
C732        C  0.93503627  0.37169863  0.49410339    -0.06200
C733        C  0.96807972  0.38283700  0.47910174    -0.00200
C734        C  0.00343834  0.39529608  0.49243647    -0.08700
C735        C  0.04025704  0.40801940  0.47740670     0.61700
H736        H  0.02602598  0.40546204  0.03335360     0.12400
H737        H  0.90816312  0.36263880  0.48369512     0.12400
C738        C  0.89785699  0.35438511  0.03780710     0.61900
F739        F  0.07329437  0.41391758  0.49399281    -0.23200
F740        F  0.03052621  0.43708755  0.46598782    -0.20600
F741        F  0.05217304  0.38536719  0.45779638    -0.20300
F742        F  0.88384056  0.37646342  0.05715300    -0.20300
F743        F  0.91072249  0.32607633  0.04900634    -0.20600
F744        F  0.86551604  0.34651441  0.02111633    -0.23300
C745        C  0.00223294  0.35945954  0.60540379     0.86100
C746        C  0.02599011  0.39200902  0.60851179    -0.54100
C747        C  0.00642619  0.41828344  0.59872695     0.09100
C748        C  0.96563097  0.40953923  0.58508970     0.20000
C749        C  0.95954780  0.36738785  0.61754870    -0.54800
C750        C  0.93975252  0.39345353  0.60697958     0.09200
C751        C  0.99636462  0.35651949  0.57510255    -0.54400
C752        C  0.97636759  0.38193456  0.56454603     0.09700
H753        H  0.05687866  0.39432182  0.61576976     0.14200
H754        H  0.95144279  0.43065178  0.57576059     0.00000
H755        H  0.94682283  0.35333158  0.63340913     0.14500
H756        H  0.00805452  0.33625573  0.56279013     0.14300
C757        C  0.57878087  0.18749536  0.85565705     0.86100
C758        C  0.55592831  0.15547448  0.85962026    -0.54100
C759        C  0.57358843  0.12892255  0.84761693     0.09100
C760        C  0.61494731  0.13588900  0.83445043     0.20000
C761        C  0.62215159  0.18098528  0.86691238    -0.54800
C762        C  0.64109898  0.15359208  0.85607601     0.09200
C763        C  0.58759865  0.18897571  0.82581276    -0.54400
C764        C  0.60631159  0.16205441  0.81427063     0.09700
H765        H  0.52893386  0.15350604  0.87206778     0.14200
H766        H  0.62871206  0.11369480  0.82593811     0.00000
H767        H  0.63753247  0.19680533  0.88122016     0.14500
H768        H  0.58085233  0.21063069  0.81492143     0.14300
Zr769      Zr  0.66396371  0.10690587  0.57441360     2.17500
O770        O  0.63288068  0.07463099  0.53800226    -0.51700
O771        O  0.71557755  0.06421859  0.57953931    -0.74900
O772        O  0.69241021  0.11849990  0.53050759    -0.81700
O773        O  0.58699577  0.07589831  0.62542270    -0.83400
O774        O  0.72220438  0.16877748  0.53120420    -0.79100
O775        O  0.61469021  0.06334671  0.58470577    -0.90700
O776        O  0.76138979  0.08136049  0.61092318    -0.76600
O777        O  0.72531255  0.13651496  0.58429383    -0.86100
O778        O  0.67543469  0.10225739  0.62074214    -0.85800
O779        O  0.65023913  0.16286921  0.56392007    -0.72600
O780        O  0.60475326  0.13047154  0.59614305    -0.84700
Zr781      Zr  0.66504667  0.21014297  0.64384770     2.26400
Zr782      Zr  0.71170553  0.19238700  0.57526196     2.06300
Zr783      Zr  0.61694487  0.12606843  0.64254103     2.10000
Zr784      Zr  0.73658221  0.13213259  0.63055679     1.78800
O785        O  0.54370047  0.13044661  0.65069032    -0.93500
O786        O  0.80530656  0.14601565  0.61569837    -0.41300
O787        O  0.67852170  0.15460567  0.65363105    -0.78000
O788        O  0.72480289  0.18815960  0.62165667    -0.96700
O789        O  0.65378593  0.21596379  0.59764238    -0.90000
O790        O  0.60327316  0.18149520  0.63360211    -0.92800
C791        C  0.74774858  0.06037660  0.59368297     1.01000
C792        C  0.59082665  0.05746977  0.60447225     1.13900
C793        C  0.71147411  0.14196074  0.51937061     1.04700
O794        O  0.78553712  0.19102014  0.56913879    -0.95000
O795        O  0.73616583  0.24528208  0.59126466    -0.90700
O796        O  0.70613061  0.25650905  0.63137704    -0.83800
C797        C  0.72961436  0.26367884  0.61203756     1.11300
O798        O  0.55622896  0.17041255  0.54669725    -0.96900
Zr799      Zr  0.59291924  0.18669851  0.58716738     1.88900
O800        O  0.60958931  0.24960503  0.64399916    -0.73600
O801        O  0.70003656  0.23424136  0.54308327    -0.52800
O802        O  0.59333197  0.22801243  0.55360093    -0.97500
O803        O  0.52233366  0.17149180  0.59652486    -0.54700
O804        O  0.56715717  0.23591624  0.60998252    -0.74100
C805        C  0.57803749  0.25471098  0.62977325     0.98200
O806        O  0.69719846  0.24041151  0.68076503    -0.62900
O807        O  0.62517810  0.08429969  0.67527635    -0.57700
O808        O  0.65130427  0.19666615  0.68991521    -0.94400
O809        O  0.61596374  0.14911710  0.68741787    -0.92800
O810        O  0.74246704  0.09562048  0.66738194    -0.93200
O811        O  0.77801703  0.15242654  0.66773535    -0.92000
C812        C  0.63229961  0.17309939  0.70073421     1.17100
H813        H  0.67792342  0.07966017  0.62522473     0.33000
H814        H  0.74881255  0.20061247  0.62678040     0.43900
H815        H  0.58051342  0.18945150  0.64427748     0.37400
H816        H  0.64454977  0.16439715  0.54520953     0.33900
H817        H  0.82353437  0.13121301  0.62516126     0.25700
H818        H  0.72681358  0.23722829  0.53420597     0.31600
H819        H  0.60296632  0.24829790  0.56294271     0.37500
H820        H  0.72793960  0.07539070  0.66150011     0.32000
H821        H  0.59709030  0.07681166  0.67931553     0.30900
H822        H  0.53663140  0.11116781  0.66107114     0.32500
H823        H  0.51761742  0.17859225  0.61531798     0.31500
H824        H  0.76746150  0.17463562  0.67200212     0.35500
H825        H  0.72699851  0.23971504  0.67723832     0.28200
H826        H  0.65569050  0.06325879  0.52856748     0.32500
H827        H  0.53232423  0.18509766  0.54613451     0.35300
H828        H  0.63802796  0.06551680  0.66553689     0.27900
H829        H  0.68932036  0.26357910  0.67944685     0.40800
H830        H  0.79203058  0.21062625  0.55900915     0.30900
H831        H  0.80667002  0.13796345  0.59690863     0.38500
H832        H  0.52245967  0.14733874  0.59664025     0.30300
H833        H  0.68241186  0.22381615  0.52923794     0.30400
H834        H  0.62259672  0.09057991  0.52538699     0.30700
C835        C  0.74286370  0.10606942  0.86333563     0.86100
C836        C  0.73849558  0.10679969  0.89374262    -0.54100
C837        C  0.72132624  0.13429052  0.90467336     0.09100
C838        C  0.71152360  0.16010409  0.88419604     0.20000
C839        C  0.70074213  0.11459634  0.85248078    -0.54800
C840        C  0.68327878  0.14243791  0.86349811     0.09200
C841        C  0.76882159  0.13683704  0.85851931    -0.54400
C842        C  0.75235652  0.16507294  0.86922542     0.09700
H843        H  0.74877643  0.08718235  0.90590967     0.14200
H844        H  0.69943621  0.18302559  0.89353015     0.00000
H845        H  0.68660468  0.09874523  0.83751428     0.14500
H846        H  0.79854246  0.13668191  0.84887880     0.14300
Zr847      Zr  0.91397289  0.43853150  0.82820914     2.17500
O848        O  0.94068273  0.47158897  0.79273139    -0.51700
O849        O  0.85902736  0.47916046  0.83320189    -0.74900
O850        O  0.88716952  0.42249713  0.78445582    -0.81700
O851        O  0.99266569  0.47466041  0.87717474    -0.83400
O852        O  0.86554213  0.36992666  0.78244071    -0.79100
O853        O  0.96457322  0.48219001  0.83678066    -0.90700
O854        O  0.81693396  0.46260158  0.86575403    -0.76600
O855        O  0.85570215  0.40571731  0.83782914    -0.86100
O856        O  0.90176973  0.44681202  0.87461860    -0.85800
O857        O  0.93298787  0.38294261  0.81601117    -0.72600
O858        O  0.97477174  0.42004030  0.84940144    -0.84700
Zr859      Zr  0.92130607  0.34026375  0.89513309     2.26400
Zr860      Zr  0.87464278  0.35006227  0.82703747     2.06300
Zr861      Zr  0.96167125  0.42750120  0.89581481     2.10000
Zr862      Zr  0.84400517  0.41385544  0.88427370     1.78800
O863        O  0.03341870  0.42950536  0.90828236    -0.93500
O864        O  0.77548969  0.39628594  0.87129875    -0.41300
O865        O  0.90319636  0.39555377  0.90678714    -0.78000
O866        O  0.86019216  0.35816353  0.87372558    -0.96700
O867        O  0.93446744  0.33157957  0.84882391    -0.90000
O868        O  0.98009790  0.37211744  0.88514633    -0.92800
C869        C  0.82714951  0.48284826  0.84807571     1.01000
C870        C  0.98925426  0.49026652  0.85579790     1.13900
C871        C  0.87267188  0.39726105  0.77167422     1.04700
O872        O  0.80336672  0.34329154  0.81435812    -0.95000
O873        O  0.84914147  0.29907704  0.84479464    -0.90700
O874        O  0.87295240  0.29474165  0.88664921    -0.83800
C875        C  0.85118154  0.28416716  0.86682479     1.11300
O876        O  0.03378746  0.38975181  0.80479293    -0.96900
Zr877      Zr  0.99209393  0.36440161  0.83861302     1.88900
O878        O  0.97462325  0.29949216  0.88798842    -0.73600
O879        O  0.89823994  0.30547429  0.79737993    -0.52800
O880        O  0.99640510  0.32926018  0.79853298    -0.97500
O881        O  0.06237395  0.37509908  0.85233579    -0.54700
O882        O  0.01538755  0.31218411  0.85339339    -0.74100
C883        C  0.00440276  0.29328646  0.87179268     0.98200
O884        O  0.90592204  0.31478435  0.93690359    -0.62900
O885        O  0.94549867  0.47333589  0.92640646    -0.57700
O886        O  0.94476907  0.35741996  0.93974747    -0.94400
O887        O  0.96714331  0.40992892  0.94047557    -0.92800
O888        O  0.83788491  0.45237389  0.92214722    -0.93200
O889        O  0.80327708  0.39469071  0.92124953    -0.92000
C890        C  0.95933512  0.38325631  0.95174134     1.17100
H891        H  0.89713817  0.46955945  0.87938032     0.33000
H892        H  0.83645210  0.34587167  0.87894945     0.43900
H893        H  0.00318700  0.36555946  0.89550522     0.37400
H894        H  0.93940892  0.38072070  0.79728234     0.33900
H895        H  0.75785021  0.41535275  0.87562653     0.25700
H896        H  0.87296955  0.29464764  0.79076113     0.31600
H897        H  0.02511336  0.32174484  0.79779411     0.37500
H898        H  0.86342580  0.44969091  0.93225980     0.32000
H899        H  0.97173388  0.47882707  0.93523887     0.30900
H900        H  0.04852588  0.42473992  0.89148671     0.32500
H901        H  0.07908421  0.35983810  0.84111378     0.31500
H902        H  0.82197569  0.38041743  0.93087820     0.35500
H903        H  0.87585967  0.31603147  0.93887862     0.28200
H904        H  0.91658427  0.47999397  0.78340592     0.32500
H905        H  0.01749009  0.40863121  0.79934172     0.35300
H906        H  0.94022595  0.49205688  0.91508539     0.27900
H907        H  0.91246344  0.29138839  0.93394928     0.40800
H908        H  0.80294580  0.32342435  0.80250494     0.30900
H909        H  0.77622175  0.39469945  0.85162139     0.38500
H910        H  0.06446517  0.36675037  0.87045411     0.30300
H911        H  0.90992414  0.31607651  0.78169299     0.30400
H912        H  0.95402723  0.45608808  0.77985778     0.30700
C913        C  0.83637442  0.44054548  0.61853659     0.86100
C914        C  0.84241945  0.44074379  0.64869396    -0.54100
C915        C  0.85931696  0.41312534  0.65774191     0.09100
C916        C  0.86934248  0.38733555  0.63577833     0.20000
C917        C  0.87990331  0.43334379  0.60715677    -0.54800
C918        C  0.89772262  0.40533132  0.61604455     0.09200
C919        C  0.81309833  0.40919236  0.61085631    -0.54400
C920        C  0.82849028  0.38137588  0.62082339     0.09700
H921        H  0.83310270  0.46095281  0.66197546     0.14200
H922        H  0.88225619  0.36522733  0.64418664     0.00000
H923        H  0.89503844  0.44842654  0.59305589     0.14500
H924        H  0.78509653  0.40940576  0.59938477     0.14300
C925        C  0.50001694  0.43839245  0.63434301     0.86100
C926        C  0.51830697  0.40427015  0.62981220    -0.54100
C927        C  0.49812967  0.38012041  0.64221936     0.09100
C928        C  0.46005203  0.39187940  0.65776379     0.20000
C929        C  0.45532896  0.43310641  0.62420735    -0.54800
C930        C  0.43415218  0.40847741  0.63637546     0.09200
C931        C  0.49474423  0.44389234  0.66452903    -0.54400
C932        C  0.47442036  0.41982886  0.67687201     0.09700
H933        H  0.54384923  0.39907261  0.61664605     0.14200
H934        H  0.44529712  0.37199426  0.66854248     0.00000
H935        H  0.44235502  0.44585625  0.60793964     0.14500
H936        H  0.50710433  0.46506812  0.67545995     0.14300
C937        C  0.08654585  0.10753577  0.87539275     0.86100
C938        C  0.06514340  0.14015638  0.87001115    -0.54100
C939        C  0.07938992  0.16635355  0.88457301     0.09100
C940        C  0.11707289  0.15848612  0.90155318     0.20000
C941        C  0.13074661  0.11523460  0.86795933    -0.54800
C942        C  0.14775923  0.14141224  0.88156633     0.09200
C943        C  0.08560907  0.10527999  0.90590105    -0.54400
C944        C  0.10157783  0.13148307  0.91971355     0.09700
H945        H  0.04148280  0.14390853  0.85559681     0.14200
H946        H  0.12918683  0.18013479  0.91283675     0.00000
H947        H  0.14566710  0.10239000  0.85163360     0.14500
H948        H  0.07449787  0.08382023  0.91574774     0.14300
Zr949      Zr  0.16471938  0.19288696  0.66235379     2.17500
O950        O  0.13133955  0.22483033  0.69817016    -0.51700
O951        O  0.22071979  0.23324823  0.65975971    -0.74900
O952        O  0.19024799  0.18013677  0.70718245    -0.81700
O953        O  0.09872641  0.22790192  0.60930399    -0.83400
O954        O  0.21256390  0.12789182  0.70682344    -0.79100
O955        O  0.11877213  0.23799782  0.65197818    -0.90700
O956        O  0.26398909  0.21577427  0.62694507    -0.76600
O957        O  0.22379364  0.16046763  0.65327624    -0.86100
O958        O  0.18031000  0.19758956  0.61612845    -0.85800
O959        O  0.14414427  0.13786278  0.67179247    -0.72600
O960        O  0.10613901  0.17184495  0.63792250    -0.84700
Zr961      Zr  0.16363046  0.08981386  0.59117066     2.26400
Zr962      Zr  0.20373253  0.10561014  0.66186444     2.06300
Zr963      Zr  0.12299955  0.17612195  0.59179204     2.10000
Zr964      Zr  0.23914833  0.16508581  0.60727305     1.78800
O965        O  0.05040808  0.17482257  0.58139017    -0.93500
O966        O  0.30579784  0.14860630  0.62322723    -0.41300
O967        O  0.18262407  0.14468296  0.58178673    -0.78000
O968        O  0.22208892  0.10985506  0.61579138    -0.96700
O969        O  0.14693147  0.08404540  0.63692795    -0.90000
O970        O  0.10363550  0.12115503  0.59993695    -0.92800
C971        C  0.25311936  0.23644620  0.64529662     1.01000
C972        C  0.09888082  0.24528086  0.63102192     1.13900
C973        C  0.20563768  0.15545283  0.71884688     1.04700
O974        O  0.27550536  0.10126013  0.67361593    -0.95000
O975        O  0.22943373  0.05341896  0.64608916    -0.90700
O976        O  0.20632932  0.04438226  0.60387060    -0.83800
C977        C  0.22656823  0.03633176  0.62434893     1.11300
O978        O  0.03836140  0.13294322  0.68004088    -0.96900
Zr979      Zr  0.08802235  0.11616185  0.64588384     1.88900
O980        O  0.10780575  0.05035932  0.59137121    -0.73600
O981        O  0.17928454  0.06365408  0.69112400    -0.52800
O982        O  0.08482196  0.08095496  0.68378007    -0.97500
O983        O  0.01997405  0.12953602  0.63017571    -0.54700
O984        O  0.06551200  0.06430518  0.62573596    -0.74100
C985        C  0.07674310  0.04512888  0.60626977     0.98200
O986        O  0.18911576  0.05651289  0.55343783    -0.62900
O987        O  0.13558972  0.21700525  0.55876034    -0.57700
O988        O  0.14963428  0.10417061  0.54511552    -0.94400
O989        O  0.12266960  0.15521498  0.54614490    -0.92800
O990        O  0.24890433  0.20089859  0.57026135    -0.93200
O991        O  0.28360872  0.14403342  0.57165290    -0.92000
C992        C  0.13436686  0.12892175  0.53374914     1.17100
H993        H  0.18508366  0.22005578  0.61182328     0.33000
H994        H  0.24607633  0.09708287  0.61136962     0.43900
H995        H  0.08148060  0.11391053  0.58853502     0.37400
H996        H  0.13669210  0.13657610  0.69032298     0.33900
H997        H  0.32564505  0.16345600  0.61494080     0.25700
H998        H  0.20414043  0.05563817  0.69983270     0.31600
H999        H  0.09279265  0.05905834  0.67657129     0.37500
H1000       H  0.22578180  0.19573428  0.55819073     0.32000
H1001       H  0.10911400  0.22819832  0.55667827     0.30900
H1002       H  0.04612166  0.19384864  0.57022235     0.32500
H1003       H  0.01754948  0.11853790  0.61238502     0.31500
H1004       H  0.26507014  0.13187151  0.55929997     0.35500
H1005       H  0.21915845  0.05558980  0.55549925     0.28200
H1006       H  0.15363567  0.23566502  0.70844520     0.32500
H1007       H  0.01780240  0.11512913  0.68029536     0.35300
H1008       H  0.15347523  0.23355722  0.56767186     0.27900
H1009       H  0.17926935  0.03402854  0.55627072     0.40800
H1010       H  0.28991138  0.09618921  0.65660254     0.30900
H1011       H  0.30589604  0.15534228  0.64233214     0.38500
H1012       H  0.02122851  0.15311990  0.62670032     0.30300
H1013       H  0.16401933  0.07553613  0.70549897     0.30400
H1014       H  0.11948493  0.20866823  0.71018070     0.30700
C1015       C  0.25105128  0.18859559  0.87806931     0.86100
C1016       C  0.24585738  0.19211225  0.84781149    -0.54100
C1017       C  0.22812530  0.16606532  0.83465807     0.09100
C1018       C  0.21821069  0.13782850  0.85299515     0.20000
C1019       C  0.20849753  0.17906311  0.88880290    -0.54800
C1020       C  0.19027538  0.15318963  0.87534784     0.09200
C1021       C  0.27482457  0.15652406  0.88064224    -0.54400
C1022       C  0.25868882  0.13038641  0.86698581     0.09700
H1023       H  0.25664133  0.21336254  0.83757456     0.14200
H1024       H  0.20606999  0.11617960  0.84184136     0.00000
H1025       H  0.19484659  0.19086086  0.90615114     0.14500
H1026       H  0.30105539  0.15345928  0.89333229     0.14300
Zr1027     Zr  0.42284928  0.35910281  0.91732661     2.17500
O1028       O  0.45550655  0.32744125  0.95131227    -0.51700
O1029       O  0.37064518  0.31621567  0.91395477    -0.74900
O1030       O  0.39941436  0.37333295  0.96275727    -0.81700
O1031       O  0.49519431  0.32426946  0.86412051    -0.83400
O1032       O  0.36832315  0.42299792  0.96389211    -0.79100
O1033       O  0.47247534  0.31602716  0.90621474    -0.90700
O1034       O  0.32863346  0.32698621  0.87967923    -0.76600
O1035       O  0.36060868  0.38673834  0.90842629    -0.86100
O1036       O  0.41044487  0.35049421  0.87084526    -0.85800
O1037       O  0.43562092  0.41581756  0.92907707    -0.72600
O1038       O  0.48095612  0.38071985  0.89430006    -0.84700
Zr1039     Zr  0.41748540  0.45636969  0.85004722     2.26400
Zr1040     Zr  0.37312126  0.44354089  0.91911831     2.06300
Zr1041     Zr  0.46725969  0.37355416  0.84783844     2.10000
Zr1042     Zr  0.34874134  0.37823298  0.86198970     1.78800
O1043       O  0.54044652  0.37709543  0.83923514    -0.93500
O1044       O  0.27851189  0.38698319  0.87688354    -0.41300
O1045       O  0.40492854  0.40033786  0.83797859    -0.78000
O1046       O  0.35906134  0.43475028  0.87264419    -0.96700
O1047       O  0.43076420  0.46554484  0.89627481    -0.90000
O1048       O  0.47995863  0.42949057  0.85887375    -0.92800
C1049       C  0.34065034  0.30915727  0.89837256     1.01000
C1050       C  0.49339473  0.30800997  0.88525836     1.13900
C1051       C  0.38094609  0.39722279  0.97498627     1.04700
O1052       O  0.30062217  0.44069316  0.92996572    -0.95000
O1053       O  0.34205854  0.49313991  0.90260117    -0.90700
O1054       O  0.36626397  0.99941233  0.86125603    -0.83800
C1055       C  0.34345083  0.00848655  0.88106495     1.11300
O1056       O  0.53196278  0.41438996  0.94104421    -0.96900
Zr1057     Zr  0.49229067  0.43708995  0.90528825     1.88900
O1058       O  0.46481898  0.99788482  0.85210361    -0.73600
O1059       O  0.38711410  0.48944130  0.94997852    -0.52800
O1060       O  0.49671358  0.47748033  0.94203297    -0.97500
O1061       O  0.56300336  0.42589951  0.89245589    -0.54700
O1062       O  0.51513935  0.48647545  0.88580384    -0.74100
C1063       C  0.49697291  0.00442818  0.86577401     0.98200
O1064       O  0.38782659  0.48206881  0.81172200    -0.62900
O1065       O  0.45766443  0.33011344  0.81391887    -0.57700
O1066       O  0.44045713  0.44373773  0.80437574    -0.94400
O1067       O  0.47167769  0.39436298  0.80340658    -0.92800
O1068       O  0.34576227  0.34086296  0.82319592    -0.93200
O1069       O  0.30431489  0.39772276  0.82743038    -0.92000
C1070       C  0.45943494  0.42005812  0.79215083     1.17100
H1071       H  0.40813518  0.32752264  0.86608920     0.33000
H1072       H  0.33432038  0.44571522  0.86778296     0.43900
H1073       H  0.50214058  0.43764392  0.84821491     0.37400
H1074       H  0.44263296  0.41896407  0.94759024     0.33900
H1075       H  0.26362212  0.36698648  0.87083163     0.25700
H1076       H  0.36253730  0.49113540  0.96152171     0.31600
H1077       H  0.47762959  0.49498616  0.93733215     0.37500
H1078       H  0.36697617  0.34891345  0.81092505     0.32000
H1079       H  0.48479855  0.31971675  0.81171785     0.30900
H1080       H  0.55337279  0.37176372  0.85625319     0.32500
H1081       H  0.57968086  0.44091840  0.90385984     0.31500
H1082       H  0.31916334  0.41657928  0.82024176     0.35500
H1083       H  0.35781107  0.48048647  0.81402900     0.28200
H1084       H  0.43307798  0.31762320  0.96166160     0.32500
H1085       H  0.54938639  0.43239864  0.94827379     0.35300
H1086       H  0.44048414  0.31352223  0.82246519     0.27900
H1087       H  0.39434050  0.50564467  0.81387040     0.40800
H1088       H  0.29748947  0.45458674  0.94639179     0.30900
H1089       H  0.27945270  0.38571282  0.89647343     0.38500
H1090       H  0.56608567  0.43426884  0.87436501     0.30300
H1091       H  0.40886587  0.48164788  0.96170757     0.30400
H1092       H  0.46870815  0.34355507  0.96369463     0.30700
C1093       C  0.33209337  0.36043785  0.62832858     0.86100
C1094       C  0.33895290  0.35669872  0.59801360    -0.54100
C1095       C  0.35493262  0.38363704  0.58664446     0.09100
C1096       C  0.36456476  0.41180737  0.60686476     0.20000
C1097       C  0.37398150  0.37011039  0.63940023    -0.54800
C1098       C  0.39193119  0.39672786  0.62838701     0.09200
C1099       C  0.30610289  0.39154153  0.63121033    -0.54400
C1100       C  0.32294473  0.41882245  0.62057078     0.09700
H1101       H  0.33182497  0.33447061  0.58656211     0.14200
H1102       H  0.37777354  0.43298178  0.59700496     0.00000
H1103       H  0.38789856  0.35584590  0.65448256     0.14500
H1104       H  0.27554540  0.39182283  0.63926252     0.14300
C1105       C  0.33604140  0.38571516  0.51173438    -0.06100
C1106       C  0.37410754  0.39490531  0.00394214    -0.00200
C1107       C  0.40783525  0.39699759  0.52068983    -0.08800
C1108       C  0.39975195  0.39393826  0.54801450    -0.06200
C1109       C  0.36056188  0.38623031  0.55739127    -0.00200
C1110       C  0.32773649  0.38287517  0.53901004    -0.08700
C1111       C  0.28391011  0.37687102  0.54773044     0.61700
H1112       H  0.31231001  0.37969935  0.99792947     0.12400
H1113       H  0.42407114  0.39749868  0.56236185     0.12400
C1114       C  0.45023703  0.40682960  0.51148201     0.61900
F1115       F  0.25651891  0.38170113  0.52740235    -0.23200
F1116       F  0.27359690  0.39810065  0.56860658    -0.20600
F1117       F  0.27935925  0.34510070  0.55543160    -0.20300
F1118       F  0.44819863  0.43641131  0.49925529    -0.20300
F1119       F  0.46631868  0.39357049  0.99830546    -0.20600
F1120       F  0.47730507  0.41017029  0.53246301    -0.23300
C1121       C  0.31540335  0.21925510  0.89255926    -0.06100
C1122       C  0.27213870  0.21951810  0.89050954    -0.00200
C1123       C  0.25220770  0.25052250  0.89419995    -0.08800
C1124       C  0.27604722  0.27861408  0.89985879    -0.06200
C1125       C  0.31869267  0.27778602  0.90066103    -0.00200
C1126       C  0.33885983  0.24758287  0.89753229    -0.08700
C1127       C  0.38524535  0.24563872  0.89688625     0.61700
H1128       H  0.33210557  0.19732530  0.88768568     0.12400
H1129       H  0.26156255  0.30226315  0.90240625     0.12400
C1130       C  0.20638325  0.25558171  0.89159932     0.61900
F1131       F  0.39916038  0.21415308  0.89169171    -0.23200
F1132       F  0.40081577  0.25644680  0.92116071    -0.20600
F1133       F  0.40019412  0.26497027  0.87714742    -0.20300
F1134       F  0.18670007  0.24640381  0.91450104    -0.20300
F1135       F  0.19124022  0.23803840  0.86999810    -0.20600
F1136       F  0.19689331  0.28798822  0.88789013    -0.23300
C1137       C  0.25884333  0.07311990  0.88082197    -0.06100
C1138       C  0.27881413  0.09802598  0.86739131    -0.00200
C1139       C  0.31987203  0.09340711  0.85881297    -0.08800
C1140       C  0.33968524  0.06430416  0.86462076    -0.06200
C1141       C  0.32008616  0.03929055  0.87817920    -0.00200
C1142       C  0.27886647  0.04378927  0.88667106    -0.08700
C1143       C  0.25596016  0.01801676  0.90177903     0.61700
H1144       H  0.22785067  0.07749441  0.88772784     0.12400
H1145       H  0.37123332  0.06105189  0.85833785     0.12400
C1146       C  0.34468300  0.11829864  0.84382276     0.61900
F1147       F  0.21567692  0.02661380  0.90653114    -0.23200
F1148       F  0.27218492  0.51412386  0.92418795    -0.20600
F1149       F  0.26029339  0.48693613  0.88503486    -0.20300
F1150       F  0.37407757  0.13187157  0.86056087    -0.20300
F1151       F  0.32132568  0.14309997  0.83416273    -0.20600
F1152       F  0.36399695  0.10291191  0.82225450    -0.23300
C1153       C  0.24533294  0.14160032  0.78986308    -0.06100
C1154       C  0.22222488  0.16429430  0.80501901    -0.00200
C1155       C  0.19444440  0.18446980  0.79173360    -0.08800
C1156       C  0.19075746  0.18108404  0.76379235    -0.06200
C1157       C  0.21389543  0.15840644  0.74837755    -0.00200
C1158       C  0.24254018  0.13863352  0.76181292    -0.08700
C1159       C  0.27115448  0.11497156  0.74704326     0.61700
H1160       H  0.26599621  0.12612323  0.80031262     0.12400
H1161       H  0.16905076  0.19608904  0.75375267     0.12400
C1162       C  0.16797298  0.20907156  0.80696865     0.61900
F1163       F  0.30096737  0.10321611  0.76354347    -0.23200
F1164       F  0.29082978  0.13057923  0.72668357    -0.20600
F1165       F  0.24934889  0.08844773  0.73681660    -0.20300
F1166       F  0.19225846  0.23379479  0.81765647    -0.20300
F1167       F  0.14718727  0.19384844  0.82704802    -0.20600
F1168       F  0.13939291  0.22312799  0.79083450    -0.23300
C1169       C  0.26135345  0.29553027  0.65944868    -0.06100
C1170       C  0.27862209  0.26683763  0.64818606    -0.00200
C1171       C  0.31904246  0.26875523  0.63771879    -0.08800
C1172       C  0.33556464  0.29959843  0.63262668    -0.06200
C1173       C  0.31544898  0.32876445  0.64033333    -0.00200
C1174       C  0.28127505  0.32605473  0.65795524    -0.08700
C1175       C  0.26807225  0.35237927  0.67821858     0.61700
H1176       H  0.23257957  0.29410800  0.67014105     0.12400
H1177       H  0.36426184  0.30099886  0.62184302     0.12400
C1178       C  0.34542856  0.23894523  0.63183939     0.61900
F1179       F  0.26145955  0.33867561  0.70259149    -0.23200
F1180       F  0.23188417  0.36623166  0.67029488    -0.20600
F1181       F  0.29772976  0.37616830  0.68225268    -0.20300
F1182       F  0.33794773  0.22654778  0.60637843    -0.20300
F1183       F  0.33768784  0.21526387  0.65009221    -0.20600
F1184       F  0.38652087  0.24690978  0.63370160    -0.23300
C1185       C  0.29300899  0.00959660  0.62406004    -0.06100
C1186       C  0.25063446  0.00629698  0.62246376    -0.00200
C1187       C  0.23055424  0.47445046  0.61560075    -0.08800
C1188       C  0.25668770  0.44731496  0.61465587    -0.06200
C1189       C  0.29909918  0.45006645  0.61951070    -0.00200
C1190       C  0.31590586  0.48179216  0.62483192    -0.08700
C1191       C  0.36072527  0.48837774  0.63025477     0.61700
H1192       H  0.30585461  0.03404488  0.62535676     0.12400
H1193       H  0.24370503  0.42345721  0.61021385     0.12400
C1194       C  0.18493277  0.46969301  0.61142044     0.61900
F1195       F  0.37020718  0.01895257  0.64221454    -0.23200
F1196       F  0.38183743  0.48983710  0.60646365    -0.20600
F1197       F  0.37672671  0.46443999  0.64537686    -0.20300
F1198       F  0.17302733  0.48481507  0.58868402    -0.20300
F1199       F  0.16360759  0.48299205  0.63302502    -0.20600
F1200       F  0.17439772  0.43696735  0.60859097    -0.23300
C1201       C  0.14773797  0.12949066  0.95847820    -0.06100
C1202       C  0.10754900  0.13140212  0.94918652    -0.00200
C1203       C  0.07472815  0.13154481  0.96791333    -0.08800
C1204       C  0.08834960  0.13317730  0.49554972    -0.06200
C1205       C  0.12798569  0.12733752  0.50449051    -0.00200
C1206       C  0.16007656  0.12311186  0.48560379    -0.08700
C1207       C  0.20379612  0.11834805  0.49437109     0.61700
H1208       H  0.17242795  0.12942794  0.94402948     0.12400
H1209       H  0.06439909  0.13694488  0.51030168     0.12400
C1210       C  0.03101238  0.13725262  0.95977443     0.61900
F1211       F  0.22759350  0.12986197  0.97415856    -0.23200
F1212       F  0.20687362  0.08955814  0.50754218    -0.20600
F1213       F  0.21552834  0.14415387  0.51120752    -0.20300
F1214       F  0.01757667  0.11206669  0.94295002    -0.20300
F1215       F  0.02929966  0.16654607  0.94726040    -0.20600
F1216       F  0.00460150  0.13927721  0.98140747    -0.23300
C1217       C  0.43215337  0.43153486  0.74764396    -0.06100
C1218       C  0.46539636  0.42155243  0.76280709    -0.00200
C1219       C  0.50233295  0.41232059  0.74953603    -0.08800
C1220       C  0.50369307  0.41172819  0.72147799    -0.06200
C1221       C  0.46980920  0.42031304  0.70640138    -0.00200
C1222       C  0.43389044  0.43140458  0.71965969    -0.08700
C1223       C  0.39827046  0.44434369  0.70433410     0.61700
H1224       H  0.40442416  0.43912880  0.75795018     0.12400
H1225       H  0.53135162  0.40436953  0.71097427     0.12400
C1226       C  0.54049344  0.40373671  0.76472391     0.61900
F1227       F  0.36616076  0.45399911  0.72082919    -0.23200
F1228       F  0.38393163  0.42042469  0.68665772    -0.20600
F1229       F  0.41124918  0.47115999  0.69071898    -0.20300
F1230       F  0.53522645  0.37389861  0.77615810    -0.20300
F1231       F  0.54828049  0.42751234  0.78435116    -0.20600
F1232       F  0.57450388  0.40157809  0.74823508    -0.23300
C1233       C  0.02913488  0.07716846  0.85097404    -0.06100
C1234       C  0.06859891  0.07600702  0.86213148    -0.00200
C1235       C  0.08651943  0.04440386  0.86495215    -0.08800
C1236       C  0.06217190  0.01646255  0.85963739    -0.06200
C1237       C  0.02161994  0.01846519  0.85109474    -0.00200
C1238       C  0.00539101  0.04922538  0.84565091    -0.08700
C1239       C  0.96227131  0.05283249  0.83550074     0.61700
H1240       H  0.01467756  0.09996536  0.84782041     0.12400
H1241       H  0.06694961  0.49200604  0.86752849     0.11200
C1242       C  0.13095685  0.03892600  0.87288978     0.61900
F1243       F  0.95076406  0.08515615  0.83376288    -0.23200
F1244       F  0.93496220  0.03818009  0.85249034    -0.20600
F1245       F  0.96006698  0.03820719  0.81032478    -0.20300
F1246       F  0.14117417  0.05683513  0.89568100    -0.20300
F1247       F  0.15668930  0.04717673  0.85233124    -0.20600
F1248       F  0.13153832  0.50413041  0.88236116    -0.23300
C1249       C  0.00164097  0.23554931  0.88333803    -0.06100
C1250       C  0.02550827  0.26128275  0.87419403    -0.00200
C1251       C  0.06723252  0.25523583  0.86768424    -0.08800
C1252       C  0.08403983  0.22454337  0.87330120    -0.06200
C1253       C  0.05996958  0.19900643  0.88281967    -0.00200
C1254       C  0.01739872  0.20442792  0.88723248    -0.08700
C1255       C  0.98597307  0.17931854  0.89580090     0.61700
H1256       H  0.96938087  0.23956895  0.88697912     0.12400
H1257       H  0.11595970  0.21972634  0.86926901     0.12400
C1258       C  0.09387328  0.28058083  0.85469945     0.61900
F1259       F  0.96587083  0.19120390  0.91843387    -0.23200
F1260       F  0.00193201  0.14940823  0.90136407    -0.20600
F1261       F  0.95756706  0.17453033  0.87577227    -0.20300
F1262       F  0.09625222  0.30834738  0.87109655    -0.20300
F1263       F  0.07787891  0.28813576  0.83034245    -0.20600
F1264       F  0.13303651  0.26950551  0.84991367    -0.23300
C1265       C  0.84286650  0.38306436  0.69804027    -0.06100
C1266       C  0.86509626  0.40824082  0.68647527    -0.00200
C1267       C  0.88905607  0.42955880  0.70281199    -0.08800
C1268       C  0.88890129  0.42543364  0.73027622    -0.06200
C1269       C  0.86720748  0.40007847  0.74227261    -0.00200
C1270       C  0.84331856  0.37843471  0.72571798    -0.08700
C1271       C  0.81749105  0.35115021  0.73677448     0.61700
H1272       H  0.82444201  0.36730289  0.68509139     0.12400
H1273       H  0.90743784  0.44204289  0.74238376     0.12400
C1274       C  0.91606325  0.45674339  0.69271092     0.61900
F1275       F  0.79264693  0.33648081  0.71754490    -0.23200
F1276       F  0.79246578  0.36351146  0.75697329    -0.20600
F1277       F  0.84251043  0.32727077  0.74636535    -0.20300
F1278       F  0.89960279  0.48656820  0.70071834    -0.20300
F1279       F  0.92057568  0.45582961  0.66542494    -0.20600
F1280       F  0.95465962  0.45431877  0.70354077    -0.23300
C1281       C  0.79035947  0.07132859  0.83293260    -0.06100
C1282       C  0.75915163  0.07279751  0.85245099    -0.00200
C1283       C  0.74578264  0.04252109  0.86269868    -0.08800
C1284       C  0.77075300  0.01512603  0.85904670    -0.06200
C1285       C  0.80601514  0.01490693  0.84295490    -0.00200
C1286       C  0.81279893  0.04239486  0.82707043    -0.08700
C1287       C  0.84229979  0.04137173  0.80377667     0.61700
H1288       H  0.79724541  0.09291903  0.82211503     0.12400
H1289       H  0.75640770  0.49303224  0.87353501     0.12400
C1290       C  0.70647251  0.03668985  0.87811631     0.61900
F1291       F  0.84002352  0.06919840  0.78911668    -0.23200
F1292       F  0.83345748  0.01478027  0.78698434    -0.20600
F1293       F  0.88156525  0.03892214  0.81283775    -0.20300
F1294       F  0.67966333  0.06229598  0.87789447    -0.20300
F1295       F  0.71558778  0.03037659  0.90422021    -0.20600
F1296       F  0.68014320  0.51412724  0.86850631    -0.23300
C1297       C  0.80371630  0.20269837  0.88923672    -0.06100
C1298       C  0.77515567  0.19648086  0.86915982    -0.00200
C1299       C  0.77068438  0.21891434  0.84887452    -0.08800
C1300       C  0.79592229  0.24690915  0.84909053    -0.06200
C1301       C  0.82542405  0.25353770  0.86908118    -0.00200
C1302       C  0.82874071  0.23084988  0.88989167    -0.08700
C1303       C  0.85731525  0.23600722  0.91325434     0.61700
H1304       H  0.80609935  0.18500232  0.90457525     0.12400
H1305       H  0.79243478  0.26393126  0.83338163     0.12400
C1306       C  0.73940942  0.21302259  0.82704456     0.61900
F1307       F  0.85726080  0.20979025  0.92980130    -0.23200
F1308       F  0.84463239  0.26307463  0.92820828    -0.20600
F1309       F  0.89692654  0.24012623  0.90433801    -0.20300
F1310       F  0.70083050  0.21077727  0.83817051    -0.20300
F1311       F  0.74819469  0.18422847  0.81295501    -0.20600
F1312       F  0.73905300  0.23804587  0.80935557    -0.23300
C1313       C  0.50555849  0.99496162  0.60990000    -0.06100
C1314       C  0.52753180  0.46575301  0.62331652    -0.00200
C1315       C  0.57000766  0.46971881  0.63059928    -0.08800
C1316       C  0.58934782  0.00092363  0.61726819    -0.06200
C1317       C  0.56866037  0.02600834  0.60528944    -0.00200
C1318       C  0.52602909  0.02333129  0.60164514    -0.08700
C1319       C  0.50225928  0.05105354  0.59000072     0.61700
H1320       H  0.47295526  0.99373056  0.60739589     0.12400
H1321       H  0.62192395  0.00397211  0.62060293     0.12400
C1322       C  0.59557136  0.44457305  0.64497078     0.61900
F1323       F  0.46159381  0.04292052  0.58595674    -0.23200
F1324       F  0.51921001  0.05880179  0.56579055    -0.20600
F1325       F  0.50383027  0.07825795  0.60712503    -0.20300
F1326       F  0.60680631  0.41952363  0.62730500    -0.20300
F1327       F  0.57520758  0.43197976  0.66634690    -0.20600
F1328       F  0.63141734  0.45813109  0.65499060    -0.23300
C1329       C  0.53023443  0.29665224  0.61419552    -0.06100
C1330       C  0.55340068  0.28502289  0.63532409    -0.00200
C1331       C  0.55333160  0.30333833  0.66005274    -0.08800
C1332       C  0.53265290  0.33347551  0.66182362    -0.06200
C1333       C  0.51232616  0.34580558  0.64003261    -0.00200
C1334       C  0.50982485  0.32675363  0.61602413    -0.08700
C1335       C  0.48602135  0.33812343  0.59227048     0.61700
H1336       H  0.52962948  0.28263699  0.59552465     0.12400
H1337       H  0.53382437  0.34853466  0.67999114     0.12400
C1338       C  0.57473745  0.29171522  0.68460007     0.61900
F1339       F  0.48408491  0.31428669  0.57202631    -0.23200
F1340       F  0.50439938  0.36538174  0.58209332    -0.20600
F1341       F  0.44648545  0.34563758  0.59995877    -0.20300
F1342       F  0.61658681  0.29397979  0.68128756    -0.20300
F1343       F  0.56367334  0.25974138  0.68890213    -0.20600
F1344       F  0.56431903  0.31031970  0.70718765    -0.23300
C1345       C  0.75154674  0.13973975  0.94952819    -0.06100
C1346       C  0.71604826  0.13806306  0.93398308    -0.00200
C1347       C  0.67752366  0.13464006  0.94659702    -0.08800
C1348       C  0.67584690  0.13325304  0.97442055    -0.06200
C1349       C  0.71113805  0.13580621  0.98994040    -0.00200
C1350       C  0.74975477  0.13910335  0.97747478    -0.08700
C1351       C  0.78880327  0.14118566  0.99353824     0.61700
H1352       H  0.78080956  0.14138559  0.93947399     0.12400
H1353       H  0.64657747  0.13144539  0.98446334     0.12400
C1354       C  0.63819171  0.13323383  0.93099314     0.61900
F1355       F  0.82320795  0.14070382  0.97736866    -0.23200
F1356       F  0.79951354  0.12916369  0.51144949    -0.20600
F1357       F  0.79073302  0.18315457  0.50643294    -0.20300
F1358       F  0.60486203  0.12557531  0.94668085    -0.20300
F1359       F  0.64087119  0.10984441  0.91062223    -0.20600
F1360       F  0.63137214  0.16337566  0.92074302    -0.23300
C1361       C  0.74581831  0.00307943  0.60466383    -0.06100
C1362       C  0.76772629  0.02805979  0.59310065    -0.00200
C1363       C  0.80919185  0.02317200  0.58632481    -0.08800
C1364       C  0.82786153  0.99336587  0.59230384    -0.06200
C1365       C  0.81247363  0.47112584  0.61067967    -0.00200
C1366       C  0.77033448  0.47662197  0.61818499    -0.08700
C1367       C  0.74345913  0.45599176  0.63615338     0.61700
H1368       H  0.71382701  0.00745736  0.60924008     0.12400
H1369       H  0.86424624  0.49323558  0.59139007     0.12400
C1370       C  0.83363374  0.04959172  0.57304277     0.61900
F1371       F  0.72686713  0.47604355  0.65618517    -0.23200
F1372       F  0.76281874  0.43120111  0.64858196    -0.20600
F1373       F  0.71179301  0.44248654  0.62126329    -0.20300
F1374       F  0.83948766  0.07578876  0.59075306    -0.20300
F1375       F  0.81272834  0.05994762  0.55112364    -0.20600
F1376       F  0.87160965  0.03851731  0.56451680    -0.23300
C1377       C  0.79556949  0.29143879  0.61212677    -0.06100
C1378       C  0.75329326  0.29412780  0.61467835    -0.00200
C1379       C  0.73541828  0.32505021  0.61965536    -0.08800
C1380       C  0.76127609  0.35243156  0.62253130    -0.06200
C1381       C  0.80411835  0.35014568  0.61937314    -0.00200
C1382       C  0.82124268  0.31882947  0.61377585    -0.08700
C1383       C  0.86581383  0.31329050  0.60823518     0.61700
H1384       H  0.80858956  0.26734476  0.60861985     0.12400
H1385       H  0.74781228  0.37598954  0.62716845     0.12400
C1386       C  0.68937211  0.32927492  0.62096329     0.61900
F1387       F  0.87165387  0.28609139  0.59142657    -0.23200
F1388       F  0.88598964  0.30849471  0.63180947    -0.20600
F1389       F  0.88193526  0.33960339  0.59574808    -0.20300
F1390       F  0.67400011  0.31507591  0.64338388    -0.20300
F1391       F  0.67167034  0.31462780  0.59859609    -0.20600
F1392       F  0.67833830  0.36188187  0.62204429    -0.23300
C1393       C  0.57511992  0.07445017  0.86558743    -0.06100
C1394       C  0.55545540  0.09604199  0.84921304    -0.00200
C1395       C  0.51807873  0.08671870  0.83693504    -0.08800
C1396       C  0.50091470  0.05654249  0.84273936    -0.06200
C1397       C  0.51944125  0.03518039  0.86022649    -0.00200
C1398       C  0.55761446  0.04437294  0.87195060    -0.08700
C1399       C  0.57987122  0.02347131  0.89150094     0.61700
H1400       H  0.60386426  0.08210304  0.87421717     0.12400
H1401       H  0.47204780  0.04995870  0.83348839     0.12400
C1402       C  0.49499463  0.10665305  0.81716209     0.61900
F1403       F  0.61633562  0.03730396  0.89983941    -0.23200
F1404       F  0.59411447  0.49744844  0.88657108    -0.20600
F1405       F  0.55617230  0.01990991  0.91405380    -0.20300
F1406       F  0.51542143  0.13459073  0.81038233    -0.20300
F1407       F  0.45723004  0.11512520  0.82775293    -0.20600
F1408       F  0.48888911  0.08796207  0.79400137    -0.23300
C1409       C  0.56995660  0.23884515  0.88615783    -0.06100
C1410       C  0.55361089  0.21734770  0.86607375    -0.00200
C1411       C  0.51401601  0.22517440  0.85547932    -0.08800
C1412       C  0.49553272  0.25444891  0.86409805    -0.06200
C1413       C  0.51296591  0.27586835  0.88287293    -0.00200
C1414       C  0.55051867  0.26823211  0.89441164    -0.08700
C1415       C  0.57049282  0.29173033  0.91446096     0.61700
H1416       H  0.59845983  0.23343062  0.89536979     0.12400
H1417       H  0.46722027  0.26196887  0.85529390     0.12400
C1418       C  0.48925248  0.20401558  0.83544246     0.61900
F1419       F  0.60786542  0.28039478  0.92286232    -0.23200
F1420       F  0.54529709  0.29600372  0.93646997    -0.20600
F1421       F  0.57684542  0.32157833  0.90316497    -0.20300
F1422       F  0.47826873  0.17503515  0.84640140    -0.20300
F1423       F  0.51036308  0.19825348  0.81201173    -0.20600
F1424       F  0.45298140  0.21864206  0.82843849    -0.23300
C1425       C  0.63334800  0.19174546  0.77623866    -0.06100
C1426       C  0.61992492  0.16167459  0.78572792    -0.00200
C1427       C  0.61638311  0.13457881  0.76729093    -0.08800
C1428       C  0.62141856  0.14018567  0.74015886    -0.06200
C1429       C  0.63027058  0.17118798  0.73037890    -0.00200
C1430       C  0.63762784  0.19747826  0.74904540    -0.08700
C1431       C  0.65002113  0.23149147  0.74120109     0.61700
H1432       H  0.63989938  0.21135096  0.79063441     0.12400
H1433       H  0.61895113  0.11962722  0.72613647     0.12400
C1434       C  0.60907805  0.09950796  0.77502866     0.61900
F1435       F  0.64925738  0.25380116  0.76262563    -0.23200
F1436       F  0.62354179  0.24271770  0.72242769    -0.20600
F1437       F  0.68941826  0.23062233  0.73130840    -0.20300
F1438       F  0.57649357  0.09767253  0.79219911    -0.20300
F1439       F  0.64392565  0.08759897  0.78653764    -0.20600
F1440       F  0.60016321  0.07897784  0.75328978    -0.23300
C1441       C  0.05696458  0.33259255  0.63411834    -0.06100
C1442       C  0.02288251  0.32883346  0.61684278    -0.00200
C1443       C  0.01076156  0.29597930  0.60969628    -0.08800
C1444       C  0.03533581  0.27002786  0.61694631    -0.06200
C1445       C  0.07185668  0.27442401  0.63084099    -0.00200
C1446       C  0.08239700  0.30613400  0.64052215    -0.08700
C1447       C  0.12113860  0.31222531  0.65637184     0.61700
H1448       H  0.06444055  0.35638391  0.64256678     0.12400
H1449       H  0.02655780  0.24541519  0.61043765     0.12400
C1450       C  0.97420279  0.28532962  0.59315361     0.61900
F1451       F  0.12726124  0.34510526  0.66249098    -0.23200
F1452       F  0.15454101  0.30093484  0.64180193    -0.20600
F1453       F  0.11876980  0.29609229  0.67995040    -0.20300
F1454       F  0.98751302  0.27316186  0.56857065    -0.20300
F1455       F  0.94740163  0.30989190  0.58936284    -0.20600
F1456       F  0.95297061  0.26096871  0.60571437    -0.23300
C1457       C  0.02772650  0.46967116  0.57781390    -0.06100
C1458       C  0.02333197  0.45202405  0.60104305    -0.00200
C1459       C  0.03434445  0.46695144  0.62593715    -0.08800
C1460       C  0.05060531  0.49870038  0.62647808    -0.06200
C1461       C  0.05378715  0.01382680  0.60229840    -0.00200
C1462       C  0.04548117  0.99850150  0.57702373    -0.08700
C1463       C  0.05739523  0.01414417  0.55123781     0.61700
H1464       H  0.01863921  0.45802089  0.55907529     0.12400
H1465       H  0.06035987  0.50995007  0.64524321     0.12400
C1466       C  0.02974791  0.44977369  0.65205430     0.61900
F1467       F  0.03990291  0.99804981  0.52939589    -0.23200
F1468       F  0.09934497  0.01305562  0.54800554    -0.20600
F1469       F  0.04452975  0.04626871  0.55164464    -0.20300
F1470       F  0.06143602  0.42805078  0.65482982    -0.20300
F1471       F  0.99302609  0.43313318  0.65292443    -0.20600
F1472       F  0.03066203  0.47175334  0.67364979    -0.23300
C1473       C  0.00446300  0.39521812  0.52045155    -0.06100
C1474       C  0.97131844  0.38388935  0.53531550    -0.00200
C1475       C  0.93588575  0.37224790  0.52198410    -0.08800
C1476       C  0.93252247  0.36958221  0.99546406    -0.06200
C1477       C  0.96454719  0.38299669  0.98090023    -0.00200
C1478       C  0.99884739  0.39677954  0.99452623    -0.08700
C1479       C  0.03447192  0.41187842  0.97984192     0.61700
H1480       H  0.03133865  0.40387191  0.53107546     0.12400
H1481       H  0.90637407  0.35961286  0.98478403     0.12400
C1482       C  0.89959396  0.35935862  0.53701135     0.61900
F1483       F  0.06690072  0.41916592  0.99662494    -0.23200
F1484       F  0.02228366  0.44062295  0.96885898    -0.20600
F1485       F  0.04828971  0.39037813  0.95992674    -0.20300
F1486       F  0.88647780  0.38261616  0.55574593    -0.20300
F1487       F  0.91107378  0.33136219  0.54916449    -0.20600
F1488       F  0.86705246  0.35152246  0.52048582    -0.23300
C1489       C  0.99791521  0.85949915  0.10582200     0.86100
C1490       C  0.02087847  0.89228908  0.10999404    -0.54100
C1491       C  0.00124981  0.91853613  0.10034440     0.09100
C1492       C  0.96139105  0.90976246  0.08560572     0.20000
C1493       C  0.95449294  0.86680864  0.11732011    -0.54800
C1494       C  0.93480960  0.89304171  0.10673649     0.09200
C1495       C  0.99309660  0.85721315  0.07535678    -0.54400
C1496       C  0.97312830  0.88269968  0.06480505     0.09700
H1497       H  0.05062125  0.89545905  0.11899287     0.14200
H1498       H  0.94754827  0.93103550  0.07633473     0.00000
H1499       H  0.94129560  0.85237547  0.13278260     0.14500
H1500       H  0.00511905  0.83712469  0.06298414     0.14300
C1501       C  0.58061043  0.68428974  0.35811781     0.86100
C1502       C  0.55827259  0.65223335  0.36273855    -0.54100
C1503       C  0.57572132  0.62572074  0.35052777     0.09100
C1504       C  0.61626578  0.63268881  0.33648605     0.20000
C1505       C  0.62441860  0.67789061  0.36873403    -0.54800
C1506       C  0.64313821  0.65053608  0.35755266     0.09200
C1507       C  0.58805037  0.68552882  0.32805429    -0.54400
C1508       C  0.60644799  0.65858306  0.31640126     0.09700
H1509       H  0.53210358  0.65014372  0.37587968     0.14200
H1510       H  0.62978309  0.61047841  0.32776210     0.00000
H1511       H  0.63973931  0.69321713  0.38342373     0.14500
H1512       H  0.58069286  0.70697383  0.31703696     0.14300
Zr1513     Zr  0.66087741  0.60553887  0.07628526     2.17500
O1514       O  0.63010444  0.57302019  0.03989258    -0.51700
O1515       O  0.71352546  0.56345738  0.08141693    -0.74900
O1516       O  0.68818848  0.61775308  0.03215917    -0.81700
O1517       O  0.58948883  0.57079588  0.12779452    -0.83400
O1518       O  0.71921738  0.66752285  0.03340002    -0.79100
O1519       O  0.61266137  0.56114150  0.08552143    -0.90700
O1520       O  0.76170317  0.58218971  0.11062787    -0.76600
O1521       O  0.72202945  0.63536422  0.08621999    -0.86100
O1522       O  0.67282240  0.60024342  0.12252709    -0.85800
O1523       O  0.64580325  0.66138766  0.06630798    -0.72600
O1524       O  0.60139553  0.62850015  0.09855522    -0.84700
Zr1525     Zr  0.66272722  0.70795438  0.14638791     2.26400
Zr1526     Zr  0.70731944  0.69103101  0.07719644     2.06300
Zr1527     Zr  0.61434787  0.62322348  0.14476527     2.10000
Zr1528     Zr  0.73363694  0.63039259  0.13248286     1.78800
O1529       O  0.54113222  0.62766549  0.15323886    -0.93500
O1530       O  0.80373745  0.64694550  0.12337179    -0.41300
O1531       O  0.67566534  0.65215757  0.15560651    -0.78000
O1532       O  0.72196900  0.68635404  0.12338339    -0.96700
O1533       O  0.65004523  0.71460985  0.10041996    -0.90000
O1534       O  0.60063733  0.67907480  0.13672054    -0.92800
C1535       C  0.74709539  0.56048167  0.09437175     1.01000
C1536       C  0.59169665  0.55345162  0.10611534     1.13900
C1537       C  0.70776692  0.64113263  0.02128914     1.04700
O1538       O  0.78043426  0.69230239  0.06788880    -0.95000
O1539       O  0.73240698  0.74370517  0.09294221    -0.90700
O1540       O  0.70437128  0.75404909  0.13377712    -0.83800
C1541       C  0.72689403  0.76163721  0.11407382     1.11300
O1542       O  0.54475132  0.66655774  0.05417000    -0.96900
Zr1543     Zr  0.58912233  0.68509412  0.09056009     1.88900
O1544       O  0.60791201  0.74783227  0.14824973    -0.73600
O1545       O  0.68954624  0.73072862  0.04439882    -0.52800
O1546       O  0.58985230  0.72313059  0.05451716    -0.97500
O1547       O  0.51785619  0.67664101  0.10315593    -0.54700
O1548       O  0.56842356  0.73645622  0.11240786    -0.74100
C1549       C  0.57825306  0.75443439  0.13290303     0.98200
O1550       O  0.69436212  0.73894700  0.18318613    -0.62900
O1551       O  0.62003817  0.58263151  0.17870014    -0.57700
O1552       O  0.65183864  0.69337569  0.19237489    -0.94400
O1553       O  0.61769093  0.64535425  0.18982529    -0.92800
O1554       O  0.73887162  0.58862358  0.16537884    -0.93200
O1555       O  0.76672131  0.64992328  0.17334679    -0.92000
C1556       C  0.63400769  0.66929697  0.20318904     1.17100
H1557       H  0.67579358  0.57762603  0.12686234     0.33000
H1558       H  0.74609431  0.69875108  0.12834820     0.43900
H1559       H  0.57823248  0.68709544  0.14768775     0.37400
H1560       H  0.63969168  0.66297871  0.04765760     0.33900
H1561       H  0.82080606  0.63116895  0.13269164     0.25700
H1562       H  0.71438662  0.73285698  0.03324718     0.31600
H1563       H  0.56755410  0.73873466  0.05886525     0.37500
H1564       H  0.71592157  0.59320250  0.17787649     0.32000
H1565       H  0.59315231  0.57148661  0.17918785     0.30900
H1566       H  0.52875744  0.60855509  0.14366291     0.32500
H1567       H  0.51504872  0.68648379  0.12135249     0.31500
H1568       H  0.75036209  0.66904936  0.17955250     0.35500
H1569       H  0.72420312  0.73840029  0.17979889     0.28200
H1570       H  0.65305152  0.56225228  0.03013463     0.32500
H1571       H  0.52494541  0.68441091  0.05183738     0.35300
H1572       H  0.63913319  0.56598192  0.17116634     0.27900
H1573       H  0.68631950  0.76203374  0.18161556     0.40800
H1574       H  0.79311418  0.70139903  0.08439786     0.30900
H1575       H  0.80799244  0.64128683  0.10425013     0.38500
H1576       H  0.51530173  0.65284003  0.10544909     0.30300
H1577       H  0.66945135  0.71944761  0.03258493     0.30400
H1578       H  0.61891988  0.58889162  0.02752966     0.30700
C1579       C  0.74512162  0.60277072  0.36385412     0.86100
C1580       C  0.74052122  0.60269550  0.39432559    -0.54100
C1581       C  0.72329291  0.63002426  0.40567703     0.09100
C1582       C  0.71340719  0.65626938  0.38554391     0.20000
C1583       C  0.70292443  0.61156073  0.35306230    -0.54800
C1584       C  0.68526619  0.63904620  0.36465993     0.09200
C1585       C  0.77075628  0.63382763  0.35956471    -0.54400
C1586       C  0.75393130  0.66174073  0.37047795     0.09700
H1587       H  0.75046122  0.58259489  0.40611283     0.14200
H1588       H  0.70127263  0.67897126  0.39521560     0.00000
H1589       H  0.68895820  0.59625203  0.33765542     0.14500
H1590       H  0.80040649  0.63431234  0.34989317     0.14300
Zr1591     Zr  0.91959055  0.93333571  0.32512096     2.17500
O1592       O  0.94905734  0.96388547  0.28898842    -0.51700
O1593       O  0.86665929  0.97584151  0.33047237    -0.74900
O1594       O  0.88942434  0.91935909  0.28206134    -0.81700
O1595       O  0.00080537  0.96713395  0.37384103    -0.83400
O1596       O  0.86433589  0.86773404  0.28016588    -0.79100
O1597       O  0.97205954  0.97556114  0.33380116    -0.90700
O1598       O  0.82506391  0.95970588  0.36341189    -0.76600
O1599       O  0.85983704  0.90262165  0.33568274    -0.86100
O1600       O  0.91034978  0.94142217  0.37177613    -0.85800
O1601       O  0.93426184  0.87703066  0.31240284    -0.72600
O1602       O  0.98014244  0.91216801  0.34478783    -0.84700
Zr1603     Zr  0.92418562  0.83476794  0.39175398     2.26400
Zr1604     Zr  0.87456092  0.84630663  0.32436379     2.06300
Zr1605     Zr  0.97013757  0.91952817  0.39162826     2.10000
Zr1606     Zr  0.85084155  0.91085632  0.38230216     1.78800
O1607       O  0.04326675  0.91670852  0.39982703    -0.93500
O1608       O  0.77995506  0.89705957  0.37209173    -0.41300
O1609       O  0.91000036  0.89053041  0.40347389    -0.78000
O1610       O  0.86300501  0.85454759  0.37135537    -0.96700
O1611       O  0.93416593  0.82560197  0.34506500    -0.90000
O1612       O  0.98467703  0.86357932  0.38039278    -0.92800
C1613       C  0.83506276  0.97980847  0.34560492     1.01000
C1614       C  0.99712657  0.98317348  0.35273419     1.13900
C1615       C  0.87254644  0.89500140  0.26947423     1.04700
O1616       O  0.80184405  0.84241815  0.31474597    -0.95000
O1617       O  0.84934011  0.79523724  0.34267558    -0.90700
O1618       O  0.87431531  0.79078702  0.38427090    -0.83800
C1619       C  0.85201301  0.78037919  0.36475972     1.11300
O1620       O  0.03046639  0.87487078  0.29473389    -0.96900
Zr1621     Zr  0.99330378  0.85588704  0.33343608     1.88900
O1622       O  0.97642881  0.79290668  0.38516619    -0.73600
O1623       O  0.89289071  0.80235396  0.29254236    -0.52800
O1624       O  0.99494552  0.81710018  0.29543029    -0.97500
O1625       O  0.06394884  0.87014585  0.34403412    -0.54700
O1626       O  0.01678530  0.80464849  0.35005495    -0.74100
C1627       C  0.00603155  0.78634107  0.36892461     0.98200
O1628       O  0.91218737  0.80910827  0.43385872    -0.62900
O1629       O  0.95944793  0.96427860  0.42427260    -0.57700
O1630       O  0.94278769  0.85313115  0.43717602    -0.94400
O1631       O  0.97464102  0.90230539  0.43667089    -0.92800
O1632       O  0.84788537  0.95074943  0.41938094    -0.93200
O1633       O  0.81330500  0.89138414  0.42051094    -0.92000
C1634       C  0.96110514  0.87761985  0.44877416     1.17100
H1635       H  0.90722175  0.96429924  0.37668753     0.33000
H1636       H  0.83891852  0.84299486  0.37702638     0.43900
H1637       H  0.00784181  0.85596037  0.39016815     0.37400
H1638       H  0.93954216  0.87473389  0.29352873     0.33900
H1639       H  0.76552265  0.91820997  0.37169089     0.25700
H1640       H  0.86676903  0.79554802  0.28415996     0.31600
H1641       H  0.98242845  0.79684266  0.30191215     0.37500
H1642       H  0.87371602  0.94767271  0.42909169     0.32000
H1643       H  0.98724834  0.97099047  0.42996371     0.30900
H1644       H  0.04874477  0.93450307  0.41321741     0.32500
H1645       H  0.08016972  0.85111803  0.33749963     0.31500
H1646       H  0.83416298  0.88043691  0.43116294     0.35500
H1647       H  0.88217901  0.80931936  0.43645056     0.28200
H1648       H  0.92583119  0.97437125  0.28018748     0.32500
H1649       H  0.05394586  0.85991927  0.29200846     0.35300
H1650       H  0.94942555  0.98276775  0.41408405     0.27900
H1651       H  0.91998589  0.78597203  0.43079581     0.40800
H1652       H  0.79908360  0.82264769  0.30292682     0.30900
H1653       H  0.78046264  0.88885639  0.35333190     0.38500
H1654       H  0.06583646  0.86969118  0.36361927     0.30300
H1655       H  0.90840341  0.81303022  0.27830950     0.30400
H1656       H  0.95962228  0.94732985  0.27585571     0.30700
C1657       C  0.83066178  0.93970244  0.11625366     0.86100
C1658       C  0.83604425  0.94082549  0.14646248    -0.54100
C1659       C  0.85278648  0.91360788  0.15625673     0.09100
C1660       C  0.86371215  0.88726741  0.13486296     0.20000
C1661       C  0.87456495  0.93255707  0.10556481    -0.54800
C1662       C  0.89241917  0.90487130  0.11513345     0.09200
C1663       C  0.80781444  0.90799781  0.10895322    -0.54400
C1664       C  0.82335227  0.88063354  0.11954760     0.09700
H1665       H  0.82528253  0.96102548  0.15919841     0.14200
H1666       H  0.87661383  0.86541209  0.14374894     0.00000
H1667       H  0.88993670  0.94756418  0.09154174     0.14500
H1668       H  0.77992657  0.90764335  0.09734503     0.14300
C1669       C  0.49786585  0.93827493  0.13401960     0.86100
C1670       C  0.51723646  0.90436376  0.12989516    -0.54100
C1671       C  0.49774620  0.88011567  0.14271520     0.09100
C1672       C  0.45946591  0.89152554  0.15814788     0.20000
C1673       C  0.45344307  0.93209205  0.12410544    -0.54800
C1674       C  0.43297517  0.90758002  0.13671127     0.09200
C1675       C  0.49268195  0.94424743  0.16422071    -0.54400
C1676       C  0.47367023  0.91979154  0.17696314     0.09700
H1677       H  0.54352751  0.89954338  0.11720333     0.14200
H1678       H  0.44504730  0.87162861  0.16912522     0.00000
H1679       H  0.43998545  0.94434460  0.10774035     0.14500
H1680       H  0.50470918  0.96574775  0.17487444     0.14300
C1681       C  0.09422193  0.60155512  0.37292202     0.86100
C1682       C  0.07076754  0.63341070  0.36784852    -0.54100
C1683       C  0.08446802  0.66034439  0.38176300     0.09100
C1684       C  0.12324182  0.65366758  0.39821746     0.20000
C1685       C  0.13796334  0.61003942  0.36508757    -0.54800
C1686       C  0.15402743  0.63687032  0.37823972     0.09200
C1687       C  0.09402349  0.59990314  0.40354919    -0.54400
C1688       C  0.11000881  0.62657816  0.41685055     0.09700
H1689       H  0.04472109  0.63570227  0.35503518     0.14200
H1690       H  0.13470385  0.67580910  0.40912814     0.00000
H1691       H  0.15372716  0.59660655  0.34934053     0.14500
H1692       H  0.08270328  0.57890060  0.41390111     0.14300
Zr1693     Zr  0.16478419  0.69354332  0.16103506     2.17500
O1694       O  0.13203802  0.72676842  0.19633373    -0.51700
O1695       O  0.22096926  0.73294532  0.15734544    -0.74900
O1696       O  0.19076897  0.68268480  0.20611742    -0.81700
O1697       O  0.09776633  0.72821270  0.10789836    -0.83400
O1698       O  0.21497102  0.63091716  0.20597700    -0.79100
O1699       O  0.11824547  0.73853585  0.15045485    -0.90700
O1700       O  0.26435723  0.71441851  0.12507918    -0.76600
O1701       O  0.22353643  0.66027212  0.15251404    -0.86100
O1702       O  0.18129851  0.69723986  0.11484306    -0.85800
O1703       O  0.14405453  0.63891823  0.17149590    -0.72600
O1704       O  0.10618553  0.67284743  0.13670222    -0.84700
Zr1705     Zr  0.16275488  0.58968810  0.09127020     2.26400
Zr1706     Zr  0.20301208  0.60585920  0.16210470     2.06300
Zr1707     Zr  0.12360560  0.67667525  0.09076600     2.10000
Zr1708     Zr  0.23940510  0.66350531  0.10642782     1.78800
O1709       O  0.05186024  0.67880704  0.07841855    -0.93500
O1710       O  0.30575323  0.64738399  0.12305843    -0.41300
O1711       O  0.18244289  0.64417245  0.08098610    -0.78000
O1712       O  0.22159048  0.60884692  0.11597284    -0.96700
O1713       O  0.14602279  0.58490037  0.13716551    -0.90000
O1714       O  0.10334382  0.62209274  0.09974531    -0.92800
C1715       C  0.25341881  0.73559003  0.14293158     1.01000
C1716       C  0.09786245  0.74565460  0.12960166     1.13900
C1717       C  0.20767602  0.65863441  0.21772893     1.04700
O1718       O  0.27437447  0.59733066  0.17310335    -0.95000
O1719       O  0.22622332  0.55239667  0.14689972    -0.90700
O1720       O  0.20415593  0.54358806  0.10439983    -0.83800
C1721       C  0.22355420  0.53520222  0.12513070     1.11300
O1722       O  0.04228297  0.64287984  0.17922165    -0.96900
Zr1723     Zr  0.08761074  0.61770266  0.14578151     1.88900
O1724       O  0.10656100  0.55091109  0.09248496    -0.73600
O1725       O  0.17538563  0.56825259  0.19402844    -0.52800
O1726       O  0.08202932  0.58339800  0.18412993    -0.97500
O1727       O  0.01841589  0.62590587  0.12963014    -0.54700
O1728       O  0.06591609  0.56474468  0.12775873    -0.74100
C1729       C  0.07654855  0.54556528  0.10819499     0.98200
O1730       O  0.18718041  0.55496101  0.05405752    -0.62900
O1731       O  0.14183384  0.71963907  0.06065206    -0.57700
O1732       O  0.14975786  0.60330229  0.04476930    -0.94400
O1733       O  0.12247597  0.65420991  0.04567865    -0.92800
O1734       O  0.25620042  0.69761192  0.06933040    -0.93200
O1735       O  0.27927744  0.63876781  0.06995372    -0.92000
C1736       C  0.13431004  0.62795267  0.03331020     1.17100
H1737       H  0.18646758  0.71955075  0.11024235     0.33000
H1738       H  0.24528995  0.59560523  0.11183979     0.43900
H1739       H  0.08096154  0.61495044  0.08849022     0.37400
H1740       H  0.13669208  0.63820321  0.19008107     0.33900
H1741       H  0.32591318  0.65883909  0.11196981     0.25700
H1742       H  0.19960643  0.56018872  0.20341933     0.31600
H1743       H  0.09195794  0.56166176  0.17776850     0.37500
H1744       H  0.23435089  0.71422040  0.06933834     0.32000
H1745       H  0.16480877  0.71063134  0.04982457     0.30900
H1746       H  0.05071534  0.69541038  0.06467399     0.32500
H1747       H  0.01590877  0.61163332  0.11338271     0.31500
H1748       H  0.26570682  0.61752587  0.06589287     0.35500
H1749       H  0.21720038  0.55350070  0.05603121     0.28200
H1750       H  0.15448399  0.73783417  0.20630380     0.32500
H1751       H  0.02098624  0.62628395  0.18260658     0.35300
H1752       H  0.11874095  0.72052128  0.04808477     0.27900
H1753       H  0.17662494  0.53275525  0.05720611     0.40800
H1754       H  0.28660782  0.61945785  0.17380085     0.30900
H1755       H  0.30784430  0.65847170  0.14082447     0.38500
H1756       H  0.01858367  0.64835770  0.12306601     0.30300
H1757       H  0.16088530  0.58218452  0.20752444     0.30400
H1758       H  0.12013411  0.71108898  0.20874166     0.30700
C1759       C  0.25644119  0.68467340  0.37730282     0.86100
C1760       C  0.25118115  0.69021407  0.34728972    -0.54100
C1761       C  0.23443836  0.66461949  0.33294787     0.09100
C1762       C  0.22465720  0.63511514  0.34991478     0.20000
C1763       C  0.21425506  0.67372222  0.38739711    -0.54800
C1764       C  0.19639882  0.64891488  0.37261539     0.09200
C1765       C  0.28086910  0.65265789  0.37845973    -0.54400
C1766       C  0.26501462  0.62706192  0.36386904     0.09700
H1767       H  0.26069601  0.71257447  0.33810001     0.14200
H1768       H  0.21258355  0.61414472  0.33784792     0.00000
H1769       H  0.20093953  0.68299664  0.40569773     0.14500
H1770       H  0.30688640  0.64901322  0.39120796     0.14300
Zr1771     Zr  0.42472282  0.85585189  0.41721380     2.17500
O1772       O  0.45789343  0.82230181  0.44970342    -0.51700
O1773       O  0.37250870  0.81320988  0.41427709    -0.74900
O1774       O  0.40168920  0.86947988  0.46273299    -0.81700
O1775       O  0.50075722  0.82259446  0.36503758    -0.83400
O1776       O  0.36787668  0.91795697  0.46305154    -0.79100
O1777       O  0.47487141  0.81337406  0.40621854    -0.90700
O1778       O  0.33137479  0.82285201  0.37933083    -0.76600
O1779       O  0.36188145  0.88189996  0.40696449    -0.86100
O1780       O  0.41485284  0.84680267  0.37057416    -0.85800
O1781       O  0.43547018  0.91269514  0.42932536    -0.72600
O1782       O  0.48310341  0.87860912  0.39538367    -0.84700
Zr1783     Zr  0.41968760  0.95341995  0.35026572     2.26400
Zr1784     Zr  0.37233658  0.93877824  0.41820573     2.06300
Zr1785     Zr  0.47169136  0.87134340  0.34858780     2.10000
Zr1786     Zr  0.35288695  0.87317211  0.36021861     1.78800
O1787       O  0.54517477  0.87533409  0.34151532    -0.93500
O1788       O  0.28000971  0.87902254  0.36930163    -0.41300
O1789       O  0.40919918  0.89719779  0.33762216    -0.78000
O1790       O  0.36075981  0.93005338  0.37139129    -0.96700
O1791       O  0.43043759  0.96229985  0.39676203    -0.90000
O1792       O  0.48244317  0.92757539  0.36003918    -0.92800
C1793       C  0.34293304  0.80563493  0.39855519     1.01000
C1794       C  0.49750447  0.80599948  0.38592678     1.13900
C1795       C  0.38183035  0.89289536  0.47458483     1.04700
O1796       O  0.29920034  0.93281974  0.42600818    -0.95000
O1797       O  0.34200111  0.98865703  0.40183089    -0.90700
O1798       O  0.37140189  0.49520149  0.35959635    -0.83800
C1799       C  0.34781993  0.50436042  0.37891823     1.11300
O1800       O  0.53066958  0.91652136  0.44477740    -0.96900
Zr1801     Zr  0.49247636  0.93511473  0.40673566     1.88900
O1802       O  0.47202306  0.49278566  0.35323315    -0.73600
O1803       O  0.37855269  0.98537861  0.44953926    -0.52800
O1804       O  0.49521802  0.97681062  0.44258462    -0.97500
O1805       O  0.56279930  0.92195179  0.39414421    -0.54700
O1806       O  0.51557179  0.98486319  0.38829778    -0.74100
C1807       C  0.50231657  0.50047968  0.36832135     0.98200
O1808       O  0.39679872  0.98234724  0.31158919    -0.62900
O1809       O  0.46341248  0.82816357  0.31428712    -0.57700
O1810       O  0.44262175  0.93965834  0.30476642    -0.94400
O1811       O  0.47641950  0.89146777  0.30390229    -0.92800
O1812       O  0.35829847  0.83425634  0.32245847    -0.93200
O1813       O  0.31166999  0.89094474  0.32339109    -0.92000
C1814       C  0.46272593  0.91660392  0.29251419     1.17100
H1815       H  0.41353080  0.82371511  0.36604262     0.33000
H1816       H  0.33589203  0.94054124  0.36612660     0.43900
H1817       H  0.50480871  0.93613060  0.34976489     0.37400
H1818       H  0.44188529  0.91609201  0.44789228     0.33900
H1819       H  0.26749603  0.85850304  0.36210054     0.25700
H1820       H  0.35165308  0.98679000  0.45862933     0.31600
H1821       H  0.46990877  0.98963401  0.44072293     0.37500
H1822       H  0.36496597  0.81307918  0.33014923     0.32000
H1823       H  0.49114587  0.81908762  0.31138167     0.30900
H1824       H  0.55051266  0.86176644  0.32516561     0.32500
H1825       H  0.58003415  0.93699914  0.40514363     0.31500
H1826       H  0.33178177  0.89761866  0.30983473     0.35500
H1827       H  0.36668600  0.97989172  0.31120184     0.28200
H1828       H  0.43606737  0.81457405  0.46166461     0.32500
H1829       H  0.55107731  0.93379704  0.44911673     0.35300
H1830       H  0.44798269  0.81061832  0.32292849     0.27900
H1831       H  0.40187460  0.00582971  0.31575863     0.40800
H1832       H  0.29641903  0.91356150  0.43716649     0.30900
H1833       H  0.27740736  0.87766245  0.38883888     0.38500
H1834       H  0.56616618  0.92957622  0.37583983     0.30300
H1835       H  0.39765132  0.97831810  0.46334449     0.30400
H1836       H  0.47472641  0.83755571  0.46077452     0.30700
C1837       C  0.33020473  0.86070862  0.13004333     0.86100
C1838       C  0.33460001  0.85847500  0.09937982    -0.54100
C1839       C  0.35049359  0.88570690  0.08843783     0.09100
C1840       C  0.36183628  0.91267944  0.10926373     0.20000
C1841       C  0.37299173  0.86938750  0.14012665    -0.54800
C1842       C  0.39046611  0.89623449  0.12937924     0.09200
C1843       C  0.30480216  0.89179910  0.13490335    -0.54400
C1844       C  0.32132528  0.91925440  0.12446653     0.09700
H1845       H  0.32611562  0.83694794  0.08739593     0.14200
H1846       H  0.37438293  0.93463533  0.09996325     0.00000
H1847       H  0.38794871  0.85433904  0.15428114     0.14500
H1848       H  0.27477869  0.89208550  0.14383973     0.14300
C1849       C  0.33135083  0.89156134  0.01364004    -0.06100
C1850       C  0.37541367  0.89130468  0.50364728    -0.00200
C1851       C  0.40413313  0.89707357  0.02235178    -0.08800
C1852       C  0.39580854  0.89426780  0.04969631    -0.06200
C1853       C  0.35604024  0.88913443  0.05919849    -0.00200
C1854       C  0.32295785  0.88852631  0.04094966    -0.08700
C1855       C  0.27884618  0.88547896  0.05000992     0.61700
H1856       H  0.31118236  0.88369552  0.49879344     0.12400
H1857       H  0.42052147  0.89544888  0.06393474     0.12400
C1858       C  0.44769200  0.90275485  0.01312067     0.61900
F1859       F  0.25173931  0.89144997  0.02976218    -0.23200
F1860       F  0.27108241  0.90788945  0.07051374    -0.20600
F1861       F  0.27133035  0.85437277  0.05847497    -0.20300
F1862       F  0.44949029  0.93004975  0.99785069    -0.20300
F1863       F  0.46711439  0.87986707  0.49770390    -0.20600
F1864       F  0.47415712  0.90768253  0.03427275    -0.23300
C1865       C  0.31955533  0.71555970  0.39369054    -0.06100
C1866       C  0.27640517  0.71518159  0.39131570    -0.00200
C1867       C  0.25554290  0.74564432  0.39624986    -0.08800
C1868       C  0.27871586  0.77439685  0.40059117    -0.06200
C1869       C  0.32132290  0.77418803  0.40135559    -0.00200
C1870       C  0.34208142  0.74414677  0.39948740    -0.08700
C1871       C  0.38826529  0.74251419  0.40174979     0.61700
H1872       H  0.33692411  0.69395506  0.38886008     0.12400
H1873       H  0.26377471  0.79789173  0.40271859     0.12400
C1874       C  0.20933351  0.74910526  0.39685156     0.61900
F1875       F  0.40293181  0.71102044  0.39797341    -0.23200
F1876       F  0.39988185  0.75389209  0.42682320    -0.20600
F1877       F  0.40612773  0.76154811  0.38283355    -0.20300
F1878       F  0.19358842  0.73544124  0.41941016    -0.20300
F1879       F  0.19273520  0.73433064  0.37441656    -0.20600
F1880       F  0.19707817  0.78143338  0.39762388    -0.23300
C1881       C  0.26380819  0.56959717  0.37754885    -0.06100
C1882       C  0.28438642  0.59435880  0.36424257    -0.00200
C1883       C  0.32521774  0.58903005  0.35554322    -0.08800
C1884       C  0.34447386  0.55974105  0.36149633    -0.06200
C1885       C  0.32455637  0.53512433  0.37533554    -0.00200
C1886       C  0.28316032  0.53987687  0.38324112    -0.08700
C1887       C  0.25919929  0.51360159  0.39701456     0.61700
H1888       H  0.23280309  0.57425176  0.38431346     0.12400
H1889       H  0.37592961  0.55610114  0.35513820     0.12400
C1890       C  0.35039430  0.61294175  0.33986055     0.61900
F1891       F  0.21880616  0.52218599  0.40087761    -0.23200
F1892       F  0.28316926  0.01519653  0.42960179    -0.20600
F1893       F  0.25783987  0.98663229  0.39397144    -0.20300
F1894       F  0.38374059  0.62294399  0.35484635    -0.20300
F1895       F  0.32917283  0.64031037  0.33296847    -0.20600
F1896       F  0.36411737  0.59739218  0.31658852    -0.23300
C1897       C  0.25469702  0.64685558  0.28678579    -0.06100
C1898       C  0.22799056  0.66488887  0.30343154    -0.00200
C1899       C  0.19599054  0.68249931  0.29176923    -0.08800
C1900       C  0.19130398  0.68084234  0.26377956    -0.06200
C1901       C  0.21758429  0.66218930  0.24696280    -0.00200
C1902       C  0.25094066  0.64584900  0.25879522    -0.08700
C1903       C  0.28363320  0.62823924  0.24224409     0.61700
H1904       H  0.27879559  0.63336679  0.29594710     0.12400
H1905       H  0.16623364  0.69354249  0.25486912     0.12400
C1906       C  0.16630427  0.70227579  0.30900136     0.61900
F1907       F  0.31765548  0.62144260  0.25726891    -0.23200
F1908       F  0.29638498  0.64761192  0.22184683    -0.20600
F1909       F  0.26844107  0.59895730  0.23185111    -0.20300
F1910       F  0.18692432  0.72774927  0.32177298    -0.20300
F1911       F  0.14873653  0.68258201  0.32764664    -0.20600
F1912       F  0.13525680  0.71535439  0.29427882    -0.23300
C1913       C  0.26169721  0.79353124  0.15891965    -0.06100
C1914       C  0.27862674  0.76595833  0.14559100    -0.00200
C1915       C  0.31839668  0.76889486  0.13413264    -0.08800
C1916       C  0.33502324  0.80019558  0.13167932    -0.06200
C1917       C  0.31472837  0.82846103  0.14122376    -0.00200
C1918       C  0.28106176  0.82423841  0.15890182    -0.08700
C1919       C  0.26778171  0.84882511  0.18055443     0.61700
H1920       H  0.23347416  0.79107614  0.17007678     0.12400
H1921       H  0.36329952  0.80301048  0.12066988     0.12400
C1922       C  0.34377102  0.73986984  0.12411517     0.61900
F1923       F  0.26168663  0.83307651  0.20412941    -0.23200
F1924       F  0.23126403  0.86297707  0.17362555    -0.20600
F1925       F  0.29714346  0.87257083  0.18562390    -0.20300
F1926       F  0.32914946  0.72786315  0.09991795    -0.20300
F1927       F  0.34269289  0.71571283  0.14252464    -0.20600
F1928       F  0.38438129  0.74840069  0.12048873    -0.23300
C1929       C  0.28943307  0.50761770  0.12720793    -0.06100
C1930       C  0.24727976  0.50480940  0.12340414    -0.00200
C1931       C  0.23166964  0.97655108  0.11600931    -0.08800
C1932       C  0.25591231  0.94859855  0.11816975    -0.06200
C1933       C  0.29804780  0.95054950  0.12396058    -0.00200
C1934       C  0.31624941  0.98189910  0.12808612    -0.08700
C1935       C  0.35954612  0.98795389  0.13754074     0.61700
H1936       H  0.30244090  0.53183031  0.13038413     0.12400
H1937       H  0.24188912  0.92485366  0.11492824     0.12400
C1938       C  0.18639125  0.97316011  0.10989916     0.61900
F1939       F  0.36478647  0.51436601  0.14937150    -0.23200
F1940       F  0.38367619  0.99744020  0.11653670    -0.20600
F1941       F  0.37610744  0.96090660  0.14831919    -0.20300
F1942       F  0.17866119  0.98530050  0.08518695    -0.20300
F1943       F  0.16360785  0.99034071  0.12896111    -0.20600
F1944       F  0.17355937  0.94091494  0.10956688    -0.23300
C1945       C  0.15535397  0.62349772  0.45640869    -0.06100
C1946       C  0.11583942  0.62783585  0.44639511    -0.00200
C1947       C  0.08272817  0.63174182  0.46455167    -0.08800
C1948       C  0.09023177  0.63782212  0.99508523    -0.06200
C1949       C  0.12810112  0.62686964  0.00396946    -0.00200
C1950       C  0.15918639  0.61916544  0.98494373    -0.08700
C1951       C  0.20119118  0.60829852  0.99335248     0.61700
H1952       H  0.18032809  0.62036574  0.44231541     0.12400
H1953       H  0.06697344  0.64412059  0.00980175     0.12400
C1954       C  0.03987336  0.63784702  0.45491614     0.61900
F1955       F  0.23438976  0.61815550  0.47355607    -0.23200
F1956       F  0.19829125  0.57773158  0.00380875    -0.20600
F1957       F  0.21696744  0.63017271  0.01229904    -0.20300
F1958       F  0.02644628  0.61134903  0.43949602    -0.20300
F1959       F  0.04011802  0.66558305  0.44019218    -0.20600
F1960       F  0.01239808  0.64265611  0.47570863    -0.23300
C1961       C  0.43628754  0.93226918  0.24874138    -0.06100
C1962       C  0.46818551  0.91846804  0.26305088    -0.00200
C1963       C  0.50323368  0.90663561  0.24882545    -0.08800
C1964       C  0.50367650  0.90738844  0.22075836    -0.06200
C1965       C  0.47077277  0.91974703  0.20659339    -0.00200
C1966       C  0.43714210  0.93330775  0.22082742    -0.08700
C1967       C  0.40228838  0.94882423  0.20648808     0.61700
H1968       H  0.40995236  0.94170057  0.25962042     0.12400
H1969       H  0.52988197  0.89829030  0.20957950     0.12400
C1970       C  0.54049875  0.89400820  0.26294992     0.61900
F1971       F  0.37291361  0.96148756  0.22387034    -0.23200
F1972       F  0.38386667  0.92554156  0.18991415    -0.20600
F1973       F  0.41728674  0.97411152  0.19180958    -0.20300
F1974       F  0.53199602  0.86368557  0.27277510    -0.20300
F1975       F  0.55136770  0.91549321  0.28363681    -0.20600
F1976       F  0.57383686  0.89078321  0.24597173    -0.23300
C1977       C  0.04305007  0.57077604  0.34304642    -0.06100
C1978       C  0.07778014  0.56965096  0.35940436    -0.00200
C1979       C  0.09280985  0.53804220  0.36536425    -0.08800
C1980       C  0.06707842  0.51083512  0.36062440    -0.06200
C1981       C  0.02810274  0.51367575  0.34949059    -0.00200
C1982       C  0.01668091  0.54396062  0.33938754    -0.08700
C1983       C  0.97499076  0.54922741  0.32767966     0.61700
H1984       H  0.03485171  0.59298594  0.33392920     0.12400
H1985       H  0.07386438  0.98709916  0.36752072     0.11200
C1986       C  0.13588683  0.53187266  0.37546346     0.61900
F1987       F  0.96876991  0.58127943  0.32098296    -0.23200
F1988       F  0.94595517  0.54151489  0.34651942    -0.20600
F1989       F  0.97033129  0.52974603  0.30486075    -0.20300
F1990       F  0.14307134  0.54801530  0.39952668    -0.20300
F1991       F  0.16424368  0.54173422  0.35699483    -0.20600
F1992       F  0.13698172  0.00117573  0.38403514    -0.23300
C1993       C  0.00386726  0.72794171  0.37864654    -0.06100
C1994       C  0.02769192  0.75471429  0.37179549    -0.00200
C1995       C  0.07025036  0.75026488  0.36775777    -0.08800
C1996       C  0.08761490  0.71960069  0.37296048    -0.06200
C1997       C  0.06358228  0.69271732  0.38016751    -0.00200
C1998       C  0.02032518  0.69702490  0.38271073    -0.08700
C1999       C  0.98872850  0.67105746  0.38936143     0.61700
H2000       H  0.97121717  0.73109026  0.38026539     0.12400
H2001       H  0.12001787  0.71587519  0.37007912     0.12400
C2002       C  0.09680675  0.77737264  0.35722403     0.61900
F2003       F  0.96444414  0.68257336  0.41028970    -0.23200
F2004       F  0.00484339  0.64188492  0.39669775    -0.20600
F2005       F  0.96408332  0.66506802  0.36744250    -0.20300
F2006       F  0.09289660  0.80528336  0.37338308    -0.20300
F2007       F  0.08524932  0.78374973  0.33155596    -0.20600
F2008       F  0.13750492  0.76911195  0.35626446    -0.23300
C2009       C  0.83577772  0.88435251  0.19694203    -0.06100
C2010       C  0.85776380  0.90943488  0.18515726    -0.00200
C2011       C  0.88341755  0.92999095  0.20093628    -0.08800
C2012       C  0.88691030  0.92407176  0.22807432    -0.06200
C2013       C  0.86505790  0.89892195  0.24035630    -0.00200
C2014       C  0.83819192  0.87898224  0.22442874    -0.08700
C2015       C  0.81138118  0.85266534  0.23596865     0.61700
H2016       H  0.81613541  0.86917931  0.18431900     0.12400
H2017       H  0.90707568  0.93958356  0.23991818     0.12400
C2018       C  0.90703370  0.95831501  0.18950417     0.61900
F2019       F  0.78342853  0.84021173  0.21762474    -0.23200
F2020       F  0.78955165  0.86547458  0.25754334    -0.20600
F2021       F  0.83534654  0.82710948  0.24374544    -0.20300
F2022       F  0.88096404  0.98414981  0.18586556    -0.20300
F2023       F  0.92459512  0.94901851  0.16538897    -0.20600
F2024       F  0.93799802  0.96917232  0.20630858    -0.23300
C2025       C  0.79492997  0.56925358  0.33386497    -0.06100
C2026       C  0.76203740  0.56986736  0.35227502    -0.00200
C2027       C  0.74731435  0.53895338  0.36054449    -0.08800
C2028       C  0.77157600  0.51127254  0.35593609    -0.06200
C2029       C  0.80857625  0.51193881  0.34173410    -0.00200
C2030       C  0.81752699  0.54049032  0.32762580    -0.08700
C2031       C  0.84913304  0.54064565  0.30549866     0.61700
H2032       H  0.80301399  0.59130118  0.32406455     0.12400
H2033       H  0.76497571  0.98953417  0.37184406     0.12400
C2034       C  0.70737729  0.53247059  0.37493243     0.61900
F2035       F  0.84948550  0.56980945  0.29250979    -0.23200
F2036       F  0.84071087  0.51576402  0.28695699    -0.20600
F2037       F  0.88739769  0.53620846  0.31563030    -0.20300
F2038       F  0.68238262  0.55907192  0.37738431    -0.20300
F2039       F  0.71553363  0.52174032  0.40007538    -0.20600
F2040       F  0.68977447  0.00659362  0.36899543    -0.23300
C2041       C  0.80743577  0.69862781  0.38811985    -0.06100
C2042       C  0.77596624  0.69337206  0.36990750    -0.00200
C2043       C  0.76902739  0.71636039  0.35029450    -0.08800
C2044       C  0.79425460  0.74427828  0.34964137    -0.06200
C2045       C  0.82649261  0.74992934  0.36779259    -0.00200
C2046       C  0.83293244  0.72634517  0.38761470    -0.08700
C2047       C  0.86576674  0.72979563  0.40859602     0.61700
H2048       H  0.81195513  0.68036102  0.40279414     0.12400
H2049       H  0.78869407  0.76201204  0.33472749     0.12400
C2050       C  0.73535701  0.71117602  0.32998575     0.61900
F2051       F  0.86922603  0.70223070  0.42348305    -0.23200
F2052       F  0.85589717  0.75551817  0.42585314    -0.20600
F2053       F  0.90320854  0.73497018  0.39676071    -0.20300
F2054       F  0.69800558  0.71043234  0.34285923    -0.20300
F2055       F  0.74127612  0.68194615  0.31584440    -0.20600
F2056       F  0.73440603  0.73591565  0.31204396    -0.23300
C2057       C  0.50799742  0.48891866  0.10613896    -0.06100
C2058       C  0.52407224  0.96587226  0.12225144    -0.00200
C2059       C  0.56675568  0.97037401  0.12854309    -0.08800
C2060       C  0.58960780  0.49701800  0.12001893    -0.06200
C2061       C  0.57031621  0.52153615  0.10646635    -0.00200
C2062       C  0.52932167  0.51722347  0.09864543    -0.08700
C2063       C  0.50813864  0.54302128  0.08296526     0.61700
H2064       H  0.47617463  0.48707069  0.10114810     0.12400
H2065       H  0.62135782  0.50107220  0.12521142     0.12400
C2066       C  0.59286210  0.94724769  0.14458465     0.61900
F2067       F  0.46846955  0.53412138  0.07646231    -0.23200
F2068       F  0.52953056  0.54761998  0.05960521    -0.20600
F2069       F  0.50688801  0.57219193  0.09771305    -0.20300
F2070       F  0.60791514  0.92247022  0.12793830    -0.20300
F2071       F  0.57202909  0.93391630  0.16541852    -0.20600
F2072       F  0.62603368  0.96353343  0.15588537    -0.23300
C2073       C  0.53107487  0.79631220  0.11658377    -0.06100
C2074       C  0.55447009  0.78534737  0.13789854    -0.00200
C2075       C  0.55446723  0.80442783  0.16229549    -0.08800
C2076       C  0.53413516  0.83477797  0.16326697    -0.06200
C2077       C  0.51296873  0.84605201  0.14137365    -0.00200
C2078       C  0.50960746  0.82589586  0.11808086    -0.08700
C2079       C  0.48241553  0.83499415  0.09517586     0.61700
H2080       H  0.53000543  0.78170156  0.09822876     0.12400
H2081       H  0.53546049  0.85047378  0.18102903     0.12400
C2082       C  0.57474865  0.79320618  0.18745557     0.61900
F2083       F  0.48189489  0.81096055  0.07504173    -0.23200
F2084       F  0.49589327  0.86359830  0.08437516    -0.20600
F2085       F  0.44283411  0.83908712  0.10436580    -0.20300
F2086       F  0.61668190  0.79304967  0.18435609    -0.20300
F2087       F  0.56112108  0.76220822  0.19303854    -0.20600
F2088       F  0.56572129  0.81362357  0.20928608    -0.23300
C2089       C  0.75339846  0.63993121  0.45045099    -0.06100
C2090       C  0.71827223  0.63390590  0.43510529    -0.00200
C2091       C  0.68049211  0.62830889  0.44813073    -0.08800
C2092       C  0.67908337  0.62917849  0.47605065    -0.06200
C2093       C  0.71381392  0.63601374  0.49137814    -0.00200
C2094       C  0.75178225  0.64153585  0.47851661    -0.08700
C2095       C  0.79041548  0.64856666  0.49426962     0.61700
H2096       H  0.78216666  0.64352156  0.44018768     0.12400
H2097       H  0.65031032  0.62542925  0.48628029     0.12400
C2098       C  0.64174753  0.62127291  0.43276242     0.61900
F2099       F  0.82484373  0.64788536  0.47811407    -0.23200
F2100       F  0.79373674  0.62118499  0.01211965    -0.20600
F2101       F  0.79145325  0.67601287  0.00983902    -0.20300
F2102       F  0.60891402  0.61468162  0.44923123    -0.20300
F2103       F  0.64762446  0.59452057  0.41583718    -0.20600
F2104       F  0.63195086  0.64797141  0.41835513    -0.23300
C2105       C  0.74554812  0.50318432  0.10539214    -0.06100
C2106       C  0.76754428  0.52828595  0.09399287    -0.00200
C2107       C  0.80954726  0.52383288  0.08840988    -0.08800
C2108       C  0.82823860  0.49421802  0.09494911    -0.06200
C2109       C  0.80649299  0.96983868  0.10770192    -0.00200
C2110       C  0.76455281  0.97549150  0.11566833    -0.08700
C2111       C  0.73758815  0.95452023  0.13333777     0.61700
H2112       H  0.71341167  0.50725745  0.10985259     0.12400
H2113       H  0.85699734  0.99069714  0.08602527     0.12400
C2114       C  0.83461655  0.55042018  0.07577896     0.61900
F2115       F  0.71912673  0.97435124  0.15279951    -0.23200
F2116       F  0.75717196  0.93045787  0.14650418    -0.20600
F2117       F  0.70732032  0.93999719  0.11782903    -0.20300
F2118       F  0.83959802  0.57652105  0.09371034    -0.20300
F2119       F  0.81487889  0.56088877  0.05345371    -0.20600
F2120       F  0.87302944  0.53947217  0.06804493    -0.23300
C2121       C  0.79231417  0.79021535  0.11294288    -0.06100
C2122       C  0.75011150  0.79231766  0.11634267    -0.00200
C2123       C  0.73160007  0.82304736  0.12100808    -0.08800
C2124       C  0.75674428  0.85097463  0.12240007    -0.06200
C2125       C  0.79950319  0.84920277  0.11859131    -0.00200
C2126       C  0.81724917  0.81804581  0.11336911    -0.08700
C2127       C  0.86168937  0.81304931  0.10697081     0.61700
H2128       H  0.80583788  0.76627326  0.10959359     0.12400
H2129       H  0.74286717  0.87447994  0.12661348     0.12400
C2130       C  0.68559585  0.82630870  0.12403735     0.61900
F2131       F  0.86720685  0.78605225  0.08989354    -0.23200
F2132       F  0.88290524  0.80827448  0.13014774    -0.20600
F2133       F  0.87699444  0.83958809  0.09439566    -0.20300
F2134       F  0.67317581  0.81284185  0.14749018    -0.20300
F2135       F  0.66623800  0.81022164  0.10291612    -0.20600
F2136       F  0.67334153  0.85861433  0.12464943    -0.23300
C2137       C  0.57907580  0.57122953  0.36818964    -0.06100
C2138       C  0.55816785  0.59285878  0.35248898    -0.00200
C2139       C  0.52022710  0.58356213  0.34108594    -0.08800
C2140       C  0.50377633  0.55330535  0.34694704    -0.06200
C2141       C  0.52379509  0.53165977  0.36339821    -0.00200
C2142       C  0.56237861  0.54086696  0.37447724    -0.08700
C2143       C  0.58585961  0.51959388  0.39311282     0.61700
H2144       H  0.60811296  0.57904542  0.37628362     0.12400
H2145       H  0.47428707  0.54682922  0.33851355     0.12400
C2146       C  0.49559071  0.60368394  0.32231793     0.61900
F2147       F  0.62261185  0.53329646  0.40085581    -0.23200
F2148       F  0.59469629  0.99245958  0.38609895    -0.20600
F2149       F  0.56354159  0.51545811  0.41611349    -0.20300
F2150       F  0.51571145  0.63133800  0.31470672    -0.20300
F2151       F  0.45916105  0.61251146  0.33450148    -0.20600
F2152       F  0.48690232  0.58511129  0.29946753    -0.23300
C2153       C  0.57327553  0.73651567  0.38775723    -0.06100
C2154       C  0.55579738  0.71424499  0.36866662    -0.00200
C2155       C  0.51576841  0.72183038  0.35863203    -0.08800
C2156       C  0.49831662  0.75182104  0.36622477    -0.06200
C2157       C  0.51685609  0.77389045  0.38392748    -0.00200
C2158       C  0.55456663  0.76644714  0.39528006    -0.08700
C2159       C  0.57550194  0.79082134  0.41416206     0.61700
H2160       H  0.60223114  0.73143686  0.39651699     0.12400
H2161       H  0.46994631  0.75929619  0.35744993     0.12400
C2162       C  0.48961643  0.69976986  0.34015007     0.61900
F2163       F  0.61235186  0.77918650  0.42317779    -0.23200
F2164       F  0.55051214  0.79747149  0.43594940    -0.20600
F2165       F  0.58305077  0.81947282  0.40130245    -0.20300
F2166       F  0.47929500  0.67157257  0.35254448    -0.20300
F2167       F  0.50927828  0.69275793  0.31639117    -0.20600
F2168       F  0.45289813  0.71406586  0.33363476    -0.23300
C2169       C  0.63559541  0.68756086  0.27865915    -0.06100
C2170       C  0.61981840  0.65807535  0.28789957    -0.00200
C2171       C  0.61519328  0.63111318  0.26945842    -0.08800
C2172       C  0.62071545  0.63662786  0.24240779    -0.06200
C2173       C  0.63251284  0.66708322  0.23279470    -0.00200
C2174       C  0.64289014  0.69255977  0.25158736    -0.08700
C2175       C  0.66283554  0.72437929  0.24397207     0.61700
H2176       H  0.64234302  0.70700564  0.29316575     0.12400
H2177       H  0.61655664  0.61630621  0.22835444     0.12400
C2178       C  0.60644944  0.59618791  0.27707213     0.61900
F2179       F  0.66962490  0.74529248  0.26582039    -0.23200
F2180       F  0.63818930  0.74059046  0.22666933    -0.20600
F2181       F  0.70039384  0.71761200  0.23236104    -0.20300
F2182       F  0.57413323  0.59508512  0.29447990    -0.20300
F2183       F  0.64091591  0.58322059  0.28825771    -0.20600
F2184       F  0.59637321  0.57606873  0.25529565    -0.23300
C2185       C  0.05362560  0.83252214  0.13398300    -0.06100
C2186       C  0.01924530  0.82878204  0.11690723    -0.00200
C2187       C  0.00796380  0.79589298  0.10926044    -0.08800
C2188       C  0.03354149  0.77009193  0.11577487    -0.06200
C2189       C  0.07022424  0.77463218  0.12957091    -0.00200
C2190       C  0.08001185  0.80633977  0.13968393    -0.08700
C2191       C  0.11877157  0.81284740  0.15546670     0.61700
H2192       H  0.06047275  0.85605393  0.14309241     0.12400
H2193       H  0.02517017  0.74550198  0.10897166     0.12400
C2194       C  0.97068645  0.78500464  0.09348560     0.61900
F2195       F  0.12477348  0.84585604  0.16112223    -0.23200
F2196       F  0.15230738  0.80141461  0.14110398    -0.20600
F2197       F  0.11642571  0.79720803  0.17927256    -0.20300
F2198       F  0.98297675  0.77129212  0.06917864    -0.20300
F2199       F  0.94421217  0.80964674  0.08895302    -0.20600
F2200       F  0.94946248  0.76170529  0.10727834    -0.23300
C2201       C  0.02416275  0.96951920  0.08024106    -0.06100
C2202       C  0.01797751  0.95217168  0.10343161    -0.00200
C2203       C  0.03080913  0.96622322  0.12831017    -0.08800
C2204       C  0.05150173  0.99621823  0.12865629    -0.06200
C2205       C  0.05428443  0.51410612  0.10498282    -0.00200
C2206       C  0.04188798  0.50009133  0.08006584    -0.08700
C2207       C  0.04848399  0.51769186  0.05436664     0.61700
H2208       H  0.01437313  0.95838604  0.06145533     0.12400
H2209       H  0.06238264  0.00654498  0.14751258     0.12400
C2210       C  0.02381033  0.95128930  0.15516938     0.61900
F2211       F  0.02835185  0.50225859  0.03323875    -0.23200
F2212       F  0.08968530  0.51850643  0.04816821    -0.20600
F2213       F  0.03388048  0.54928782  0.05714111    -0.20300
F2214       F  0.06067826  0.94041536  0.16466327    -0.20300
F2215       F  0.99640992  0.92562433  0.15438127    -0.20600
F2216       F  0.00853121  0.97484595  0.17298907    -0.23300
C2217       C  0.00186943  0.89584501  0.02072051    -0.06100
C2218       C  0.96828192  0.88501645  0.03544965    -0.00200
C2219       C  0.93273937  0.87401824  0.02179138    -0.08800
C2220       C  0.93078723  0.86826687  0.49297241    -0.06200
C2221       C  0.96483473  0.87825027  0.47821329    -0.00200
C2222       C  0.00060154  0.88912214  0.49186749    -0.08700
C2223       C  0.03878008  0.89979902  0.47722395     0.61700
H2224       H  0.02882445  0.90401718  0.03149345     0.12400
H2225       H  0.90371361  0.86009849  0.48232751     0.12400
C2226       C  0.89615962  0.86096093  0.03641029     0.61900
F2227       F  0.07190201  0.90336607  0.49409451    -0.23200
F2228       F  0.03197692  0.92957097  0.46609710    -0.20600
F2229       F  0.04896667  0.87679140  0.45745990    -0.20300
F2230       F  0.88213712  0.88422666  0.05483584    -0.20300
F2231       F  0.90772672  0.83318357  0.04883744    -0.20600
F2232       F  0.86422194  0.85262156  0.01950833    -0.23300
C2233       C  0.99859826  0.85879124  0.60527078     0.86100
C2234       C  0.02106220  0.89207280  0.60743869    -0.54100
C2235       C  0.00064829  0.91727716  0.59680526     0.09100
C2236       C  0.96019029  0.90711772  0.58348339     0.20000
C2237       C  0.95563430  0.86654442  0.61744060    -0.54800
C2238       C  0.93498035  0.89178362  0.60602059     0.09200
C2239       C  0.99210961  0.85424632  0.57511446    -0.54400
C2240       C  0.97123186  0.87867979  0.56383165     0.09700
H2241       H  0.05115212  0.89629701  0.61554319     0.14200
H2242       H  0.94569020  0.92753365  0.57343027     0.00000
H2243       H  0.94342538  0.85318780  0.63387256     0.14500
H2244       H  0.00405390  0.83353608  0.56340942     0.14300
C2245       C  0.57901107  0.68869982  0.85850613     0.86100
C2246       C  0.55707675  0.65638872  0.86274418    -0.54100
C2247       C  0.57506827  0.63020217  0.85046035     0.09100
C2248       C  0.61585095  0.63771828  0.83697691     0.20000
C2249       C  0.62261659  0.68263178  0.86953704    -0.54800
C2250       C  0.64185539  0.65548044  0.85846518     0.09200
C2251       C  0.58711409  0.69028329  0.82852812    -0.54400
C2252       C  0.60648212  0.66373279  0.81687885     0.09700
H2253       H  0.53090810  0.65387605  0.87582823     0.14200
H2254       H  0.62988078  0.61576308  0.82847234     0.00000
H2255       H  0.63752843  0.69816734  0.88425278     0.14500
H2256       H  0.57921018  0.71169126  0.81764468     0.14300
Zr2257     Zr  0.66370366  0.60501994  0.57722601     2.17500
O2258       O  0.63150685  0.57137929  0.54208380    -0.51700
O2259       O  0.71668364  0.56328313  0.58273522    -0.74900
O2260       O  0.68979768  0.61607212  0.53243162    -0.81700
O2261       O  0.59174843  0.57241434  0.63032944    -0.83400
O2262       O  0.71724822  0.66710696  0.53167091    -0.79100
O2263       O  0.61611244  0.56095501  0.58852906    -0.90700
O2264       O  0.76483915  0.58326648  0.61145900    -0.76600
O2265       O  0.72386238  0.63707617  0.58466843    -0.86100
O2266       O  0.67924124  0.60156815  0.62318258    -0.85800
O2267       O  0.64506623  0.65996142  0.56660297    -0.72600
O2268       O  0.60507092  0.62702129  0.60084216    -0.84700
Zr2269     Zr  0.66461649  0.70900489  0.64563940     2.26400
Zr2270     Zr  0.70550623  0.69197768  0.57526368     2.06300
Zr2271     Zr  0.62126971  0.62333256  0.64669787     2.10000
Zr2272     Zr  0.73917344  0.63379380  0.63059716     1.78800
O2273       O  0.54978414  0.62539276  0.66036607    -0.93500
O2274       O  0.80653695  0.64944944  0.61442437    -0.41300
O2275       O  0.68193142  0.65419981  0.65567397    -0.78000
O2276       O  0.72322575  0.68878503  0.62115469    -0.96700
O2277       O  0.64872916  0.71407795  0.59993938    -0.90000
O2278       O  0.60368567  0.67823937  0.63796681    -0.92800
C2279       C  0.75020631  0.56090557  0.59583899     1.01000
C2280       C  0.59424565  0.55436111  0.60903280     1.13900
C2281       C  0.70761872  0.63958135  0.52052616     1.04700
O2282       O  0.77772556  0.69763551  0.56433720    -0.95000
O2283       O  0.72953019  0.74541574  0.59015665    -0.90700
O2284       O  0.70441806  0.75511609  0.63190137    -0.83800
C2285       C  0.72529727  0.76301741  0.61161053     1.11300
O2286       O  0.54296992  0.66018420  0.55786011    -0.96900
Zr2287     Zr  0.58875736  0.68260016  0.59205858     1.88900
O2288       O  0.60926868  0.74860278  0.64584984    -0.73600
O2289       O  0.68196928  0.73010798  0.54276705    -0.52800
O2290       O  0.58542359  0.71866898  0.55479077    -0.97500
O2291       O  0.52013344  0.67029542  0.60811247    -0.54700
O2292       O  0.56669077  0.73497891  0.61191645    -0.74100
C2293       C  0.57837598  0.75429783  0.63120237     0.98200
O2294       O  0.69820836  0.74033025  0.68151021    -0.62900
O2295       O  0.63551092  0.58147731  0.67850062    -0.57700
O2296       O  0.65318046  0.69703261  0.69220363    -0.94400
O2297       O  0.62296078  0.64736141  0.69095027    -0.92800
O2298       O  0.75072275  0.59655093  0.66627346    -0.93200
O2299       O  0.78029907  0.65784762  0.66653272    -0.92000
C2300       C  0.63700001  0.67266805  0.70363427     1.17100
H2301       H  0.68348360  0.57926018  0.62798159     0.33000
H2302       H  0.74707663  0.70193160  0.62529741     0.43900
H2303       H  0.58167409  0.68598523  0.64939923     0.37400
H2304       H  0.63789960  0.66064009  0.54804515     0.33900
H2305       H  0.82575291  0.63472180  0.62314736     0.25700
H2306       H  0.70653696  0.73497416  0.53201186     0.31600
H2307       H  0.56003280  0.73138814  0.55772667     0.37500
H2308       H  0.72899948  0.60185852  0.67951302     0.32000
H2309       H  0.60831736  0.57371310  0.68432052     0.30900
H2310       H  0.54896127  0.61462302  0.67763284     0.32500
H2311       H  0.51742690  0.68240537  0.62543940     0.31500
H2312       H  0.76372460  0.67630082  0.67383964     0.35500
H2313       H  0.72782033  0.74003461  0.67731191     0.28200
H2314       H  0.65405733  0.56123439  0.53151413     0.32500
H2315       H  0.52161360  0.67691066  0.55574517     0.35300
H2316       H  0.64711040  0.56282710  0.66791578     0.27900
H2317       H  0.68968802  0.76334801  0.68017640     0.40800
H2318       H  0.79132466  0.70261445  0.58154898     0.30900
H2319       H  0.80703455  0.64202982  0.59546222     0.38500
H2320       H  0.52118363  0.64704220  0.61268988     0.30300
H2321       H  0.66417678  0.71704051  0.53054199     0.30400
H2322       H  0.61859245  0.58693780  0.53016152     0.30700
C2323       C  0.74243058  0.60673728  0.86651047     0.86100
C2324       C  0.73837157  0.60882780  0.89689515    -0.54100
C2325       C  0.72190968  0.63701780  0.90708906     0.09100
C2326       C  0.71244454  0.66208008  0.88593448     0.20000
C2327       C  0.70038839  0.61538907  0.85565791    -0.54800
C2328       C  0.68372960  0.64398008  0.86592609     0.09200
C2329       C  0.76894014  0.63699052  0.86065825    -0.54400
C2330       C  0.75304229  0.66596060  0.87052548     0.09700
H2331       H  0.74779824  0.58936605  0.90953426     0.14200
H2332       H  0.70084059  0.68545739  0.89473179     0.00000
H2333       H  0.68565659  0.59890428  0.84142082     0.14500
H2334       H  0.79846270  0.63603331  0.85077752     0.14300
Zr2335     Zr  0.91781685  0.93906819  0.82560994     2.17500
O2336       O  0.94895493  0.96834848  0.78929590    -0.51700
O2337       O  0.86444873  0.98116460  0.82924531    -0.74900
O2338       O  0.88717914  0.92492813  0.78269298    -0.81700
O2339       O  0.00036526  0.97261399  0.87366864    -0.83400
O2340       O  0.85967149  0.87418163  0.78184529    -0.79100
O2341       O  0.96971369  0.98159924  0.83425138    -0.90700
O2342       O  0.82511523  0.96686172  0.86387614    -0.76600
O2343       O  0.85795642  0.90905669  0.83700410    -0.86100
O2344       O  0.90892690  0.94813148  0.87229949    -0.85800
O2345       O  0.93183590  0.88261254  0.81327691    -0.72600
O2346       O  0.97799740  0.91797877  0.84575069    -0.84700
Zr2347     Zr  0.92172284  0.84106670  0.89309752     2.26400
Zr2348     Zr  0.87186024  0.85269370  0.82582775     2.06300
Zr2349     Zr  0.96828739  0.92607190  0.89248754     2.10000
Zr2350     Zr  0.84947332  0.91805819  0.88359091     1.78800
O2351       O  0.04133131  0.92391835  0.90115804    -0.93500
O2352       O  0.77742719  0.90867873  0.87388437    -0.41300
O2353       O  0.90821274  0.89712896  0.90488225    -0.78000
O2354       O  0.86067862  0.86139480  0.87284508    -0.96700
O2355       O  0.93148856  0.83173487  0.84644510    -0.90000
O2356       O  0.98206854  0.87000867  0.88143881    -0.92800
C2357       C  0.83372825  0.98581466  0.84497059     1.01000
C2358       C  0.99565561  0.98886546  0.85274157     1.13900
C2359       C  0.86877537  0.90091208  0.77060503     1.04700
O2360       O  0.79920796  0.84793024  0.81618870    -0.95000
O2361       O  0.84559110  0.80175494  0.84344869    -0.90700
O2362       O  0.87245327  0.79618533  0.88448490    -0.83800
C2363       C  0.84945085  0.78618924  0.86506206     1.11300
O2364       O  0.02755537  0.88493093  0.79737635    -0.96900
Zr2365     Zr  0.99091123  0.86173657  0.83460786     1.88900
O2366       O  0.97638596  0.80096464  0.88740699    -0.73600
O2367       O  0.89272983  0.80914619  0.79439982    -0.52800
O2368       O  0.99144993  0.82219836  0.79713517    -0.97500
O2369       O  0.06228374  0.87473812  0.84393120    -0.54700
O2370       O  0.01720719  0.81191236  0.85241083    -0.74100
C2371       C  0.00675266  0.79426294  0.87178060     0.98200
O2372       O  0.90797102  0.81410657  0.93449592    -0.62900
O2373       O  0.95522036  0.97181115  0.92384942    -0.57700
O2374       O  0.94202811  0.85944999  0.93824864    -0.94400
O2375       O  0.97470805  0.90829408  0.93730515    -0.92800
O2376       O  0.84913973  0.95824488  0.92056086    -0.93200
O2377       O  0.81048423  0.89858450  0.92121693    -0.92000
C2378       C  0.96127296  0.88370810  0.94958834     1.17100
H2379       H  0.90606574  0.97110847  0.87693740     0.33000
H2380       H  0.83663997  0.84983574  0.87860891     0.43900
H2381       H  0.00537181  0.86262568  0.89120235     0.37400
H2382       H  0.93677497  0.88000340  0.79437914     0.33900
H2383       H  0.76341015  0.92864830  0.88082077     0.25700
H2384       H  0.86683896  0.80016712  0.78707739     0.31600
H2385       H  0.97866345  0.80227689  0.80404575     0.37500
H2386       H  0.82318551  0.97025812  0.91872544     0.32000
H2387       H  0.98128301  0.97526328  0.93345906     0.30900
H2388       H  0.04664218  0.94257353  0.91377508     0.32500
H2389       H  0.07796555  0.85644023  0.83553902     0.31500
H2390       H  0.83140622  0.89116571  0.93373845     0.35500
H2391       H  0.87830977  0.80932073  0.93474221     0.28200
H2392       H  0.92634818  0.98012217  0.78092816     0.32500
H2393       H  0.04599529  0.86753531  0.79030441     0.35300
H2394       H  0.95259723  0.99125712  0.91293397     0.27900
H2395       H  0.92183233  0.79273181  0.93252608     0.40800
H2396       H  0.78961056  0.87073001  0.81529764     0.30900
H2397       H  0.77546714  0.90973931  0.85431678     0.38500
H2398       H  0.06543940  0.87210986  0.86327017     0.30300
H2399       H  0.90579091  0.82032634  0.77944773     0.30400
H2400       H  0.95759788  0.95139301  0.77588360     0.30700
C2401       C  0.83089023  0.93862602  0.61517664     0.86100
C2402       C  0.83629417  0.94118207  0.64540900    -0.54100
C2403       C  0.85407238  0.91487449  0.65609679     0.09100
C2404       C  0.86485654  0.88750853  0.63547417     0.20000
C2405       C  0.87465424  0.93110736  0.60444010    -0.54800
C2406       C  0.89296326  0.90409006  0.61481521     0.09200
C2407       C  0.80855282  0.90649012  0.60900047    -0.54400
C2408       C  0.82427646  0.87988406  0.62064068     0.09700
H2409       H  0.82579516  0.96203448  0.65757060     0.14200
H2410       H  0.87830670  0.86641453  0.64504470     0.00000
H2411       H  0.88919709  0.94509411  0.58937303     0.14500
H2412       H  0.78158763  0.90494422  0.59663159     0.14300
C2413       C  0.50087602  0.94135331  0.63451439     0.86100
C2414       C  0.52156596  0.90811811  0.62904745    -0.54100
C2415       C  0.50287196  0.88265052  0.64081140     0.09100
C2416       C  0.46424948  0.89240306  0.65671176     0.20000
C2417       C  0.45668837  0.93462850  0.62428785    -0.54800
C2418       C  0.43708114  0.90900511  0.63600337     0.09200
C2419       C  0.49567535  0.94548005  0.66485707    -0.54400
C2420       C  0.47706646  0.92002441  0.67656581     0.09700
H2421       H  0.54923260  0.90508487  0.61719692     0.14200
H2422       H  0.45084343  0.87152759  0.66695420     0.00000
H2423       H  0.44289122  0.94745596  0.60834439     0.14500
H2424       H  0.50670449  0.96675930  0.67626728     0.14300
C2425       C  0.08634724  0.60710382  0.87604967     0.86100
C2426       C  0.06590106  0.64016149  0.87031104    -0.54100
C2427       C  0.08155667  0.66651110  0.88410699     0.09100
C2428       C  0.11943256  0.65821266  0.90068203     0.20000
C2429       C  0.13081161  0.61341160  0.86797974    -0.54800
C2430       C  0.14876766  0.63991745  0.88070040     0.09200
C2431       C  0.08638164  0.60598760  0.90668249    -0.54400
C2432       C  0.10441398  0.63201225  0.91957989     0.09700
H2433       H  0.04120424  0.64400285  0.85669795     0.14200
H2434       H  0.13230744  0.67992484  0.91144308     0.00000
H2435       H  0.14552907  0.59913515  0.85228360     0.14500
H2436       H  0.07438739  0.58542426  0.91732128     0.14300
Zr2437     Zr  0.16838317  0.69480558  0.65950812     2.17500
O2438       O  0.13915358  0.73179641  0.69364769    -0.51700
O2439       O  0.22606146  0.73323695  0.65720619    -0.74900
O2440       O  0.18953289  0.68208687  0.70531122    -0.81700
O2441       O  0.10072348  0.72946863  0.60618758    -0.83400
O2442       O  0.21026264  0.62940575  0.70533141    -0.79100
O2443       O  0.12247386  0.73975147  0.64853371    -0.90700
O2444       O  0.26978256  0.71475267  0.62516204    -0.76600
O2445       O  0.22635030  0.66061236  0.65156502    -0.86100
O2446       O  0.18588872  0.69866299  0.61353049    -0.85800
O2447       O  0.14506005  0.64063808  0.66933624    -0.72600
O2448       O  0.10991188  0.67523516  0.63437679    -0.84700
Zr2449     Zr  0.16493572  0.59144259  0.58952231     2.26400
Zr2450     Zr  0.20336129  0.60647181  0.66049071     2.06300
Zr2451     Zr  0.12849526  0.67884830  0.58845659     2.10000
Zr2452     Zr  0.24350434  0.66434273  0.60567792     1.78800
O2453       O  0.05839744  0.68525339  0.57364811    -0.93500
O2454       O  0.30922986  0.64666566  0.62236740    -0.41300
O2455       O  0.18683927  0.64545494  0.57942918    -0.78000
O2456       O  0.22365681  0.60976605  0.61468788    -0.96700
O2457       O  0.14638203  0.58665155  0.63504894    -0.90000
O2458       O  0.10626896  0.62467270  0.59723472    -0.92800
C2459       C  0.25889383  0.73583361  0.64316831     1.01000
C2460       C  0.10153000  0.74680084  0.62794179     1.13900
C2461       C  0.20357099  0.65709501  0.71719263     1.04700
O2462       O  0.27444247  0.60080535  0.67345032    -0.95000
O2463       O  0.22577955  0.55271982  0.64512440    -0.90700
O2464       O  0.20491338  0.54460889  0.60232657    -0.83800
C2465       C  0.22355026  0.53578822  0.62318280     1.11300
O2466       O  0.04032890  0.64355595  0.67555689    -0.96900
Zr2467     Zr  0.08874963  0.62050518  0.64297769     1.88900
O2468       O  0.10868885  0.55282969  0.59077883    -0.73600
O2469       O  0.17650916  0.56671498  0.69093125    -0.52800
O2470       O  0.08099584  0.58748521  0.68196186    -0.97500
O2471       O  0.02216139  0.63216926  0.62410346    -0.54700
O2472       O  0.06707639  0.56718225  0.62542071    -0.74100
C2473       C  0.07828716  0.54767906  0.60619367     0.98200
O2474       O  0.18980097  0.55749255  0.55199333    -0.62900
O2475       O  0.15494403  0.72055303  0.55968947    -0.57700
O2476       O  0.15064574  0.60455082  0.54331045    -0.94400
O2477       O  0.12322495  0.65542185  0.54344066    -0.92800
O2478       O  0.25895243  0.69967328  0.56907141    -0.93200
O2479       O  0.28520953  0.64032682  0.56977508    -0.92000
C2480       C  0.13485778  0.62875109  0.53151114     1.17100
H2481       H  0.19168000  0.72099346  0.60926602     0.33000
H2482       H  0.24705980  0.59611847  0.61073633     0.43900
H2483       H  0.08408799  0.61787241  0.58568072     0.37400
H2484       H  0.13672734  0.63986167  0.68774041     0.33900
H2485       H  0.32987829  0.65919795  0.61248960     0.25700
H2486       H  0.20030827  0.56039912  0.70160138     0.31600
H2487       H  0.05674065  0.57352764  0.67832911     0.37500
H2488       H  0.24385615  0.72013612  0.57322880     0.32000
H2489       H  0.17424751  0.70884466  0.54749761     0.30900
H2490       H  0.05991028  0.70213484  0.56012906     0.32500
H2491       H  0.01701326  0.61427468  0.61073752     0.31500
H2492       H  0.27004344  0.62045800  0.56373354     0.35500
H2493       H  0.21974295  0.55577953  0.55426219     0.28200
H2494       H  0.16270868  0.74135665  0.70350948     0.32500
H2495       H  0.01694627  0.62812746  0.67563945     0.35300
H2496       H  0.13159733  0.72607783  0.54831231     0.27900
H2497       H  0.17892658  0.53526871  0.55465398     0.40800
H2498       H  0.28916813  0.59467403  0.65676119     0.30900
H2499       H  0.31053951  0.65592317  0.64081215     0.38500
H2500       H  0.02672316  0.65171082  0.61352067     0.30300
H2501       H  0.15884256  0.57935467  0.70358604     0.30400
H2502       H  0.12503145  0.71771876  0.70638882     0.30700
C2503       C  0.25106330  0.68736632  0.87577856     0.86100
C2504       C  0.24415576  0.69117949  0.84569540    -0.54100
C2505       C  0.22645674  0.66492045  0.83276072     0.09100
C2506       C  0.21801202  0.63635597  0.85106640     0.20000
C2507       C  0.20952110  0.67710448  0.88729836    -0.54800
C2508       C  0.19102773  0.65131324  0.87396230     0.09200
C2509       C  0.27552973  0.65560742  0.87773316    -0.54400
C2510       C  0.25930468  0.62929165  0.86430893     0.09700
H2511       H  0.25337797  0.71285108  0.83540907     0.14200
H2512       H  0.20538031  0.61469284  0.84013156     0.00000
H2513       H  0.19698295  0.68826413  0.90521315     0.14500
H2514       H  0.30232671  0.65292178  0.89001300     0.14300
Zr2515     Zr  0.41961732  0.85866356  0.91731257     2.17500
O2516       O  0.45078489  0.82386302  0.94974930    -0.51700
O2517       O  0.36839740  0.81531274  0.91384305    -0.74900
O2518       O  0.39752000  0.87320833  0.96294752    -0.81700
O2519       O  0.49428103  0.82492870  0.86476628    -0.83400
O2520       O  0.36310559  0.92137769  0.96328672    -0.79100
O2521       O  0.47099144  0.81688987  0.90671715    -0.90700
O2522       O  0.32518689  0.82621615  0.88026896    -0.76600
O2523       O  0.35683659  0.88535789  0.90797384    -0.86100
O2524       O  0.40753655  0.84965055  0.87093428    -0.85800
O2525       O  0.43129507  0.91546907  0.92885195    -0.72600
O2526       O  0.47757729  0.88121795  0.89479723    -0.84700
Zr2527     Zr  0.41340753  0.95540905  0.84908594     2.26400
Zr2528     Zr  0.36860552  0.94226981  0.91849904     2.06300
Zr2529     Zr  0.46424108  0.87320924  0.84827721     2.10000
Zr2530     Zr  0.34557380  0.87669653  0.86145191     1.78800
O2531       O  0.53703119  0.87871091  0.83901167    -0.93500
O2532       O  0.27463539  0.88563543  0.87477036    -0.41300
O2533       O  0.40167125  0.89918535  0.83759407    -0.78000
O2534       O  0.35501902  0.93348532  0.87180685    -0.96700
O2535       O  0.42541726  0.96506287  0.89541199    -0.90000
O2536       O  0.47605701  0.92945088  0.85891362    -0.92800
C2537       C  0.33813173  0.80822944  0.89857315     1.01000
C2538       C  0.49253716  0.80899138  0.88604382     1.13900
C2539       C  0.37758446  0.89653611  0.97487675     1.04700
O2540       O  0.29558716  0.94074027  0.92791721    -0.95000
O2541       O  0.34021622  0.99292467  0.90267348    -0.90700
O2542       O  0.37017569  0.50024130  0.86187991    -0.83800
C2543       C  0.34596776  0.50883348  0.88106217     1.11300
O2544       O  0.52218728  0.92502322  0.94636843    -0.96900
Zr2545     Zr  0.48726320  0.93809350  0.90539459     1.88900
O2546       O  0.46959937  0.49824896  0.85415607    -0.73600
O2547       O  0.38433864  0.98683339  0.95032353    -0.52800
O2548       O  0.48854873  0.98253103  0.93905502    -0.97500
O2549       O  0.55790055  0.92250055  0.89613794    -0.54700
O2550       O  0.51010220  0.98642800  0.88397777    -0.74100
C2551       C  0.50168007  0.50476562  0.86794965     0.98200
O2552       O  0.38468718  0.98083361  0.81038248    -0.62900
O2553       O  0.45333977  0.82940692  0.81476032    -0.57700
O2554       O  0.43841511  0.94165408  0.80376792    -0.94400
O2555       O  0.46913107  0.89222509  0.80354521    -0.92800
O2556       O  0.34539363  0.83828694  0.82321672    -0.93200
O2557       O  0.30226762  0.89221749  0.82489958    -0.92000
C2558       C  0.45758311  0.91773967  0.79186988     1.17100
H2559       H  0.40569443  0.82663492  0.86633012     0.33000
H2560       H  0.33024540  0.94442007  0.86693830     0.43900
H2561       H  0.49839569  0.93753849  0.84835648     0.37400
H2562       H  0.43808047  0.91893518  0.94735346     0.33900
H2563       H  0.25956784  0.86660767  0.86695370     0.25700
H2564       H  0.36023283  0.98832911  0.96229258     0.31600
H2565       H  0.47024074  0.99943104  0.93227387     0.37500
H2566       H  0.34727549  0.81635059  0.83066451     0.32000
H2567       H  0.47833763  0.81589718  0.81484051     0.30900
H2568       H  0.54621051  0.85647133  0.83348344     0.32500
H2569       H  0.57471315  0.94001201  0.90471565     0.31500
H2570       H  0.31734256  0.91020191  0.81657588     0.35500
H2571       H  0.35464663  0.97994215  0.81274732     0.28200
H2572       H  0.42917119  0.81828238  0.96267548     0.32500
H2573       H  0.54478732  0.94102384  0.94859257     0.35300
H2574       H  0.43171041  0.81537379  0.82213068     0.27900
H2575       H  0.39196295  0.00428287  0.81237373     0.40800
H2576       H  0.29271824  0.95085863  0.94602204     0.30900
H2577       H  0.27410247  0.88228811  0.89414827     0.38500
H2578       H  0.56164417  0.92544275  0.87685052     0.30300
H2579       H  0.40643270  0.97837388  0.96147103     0.30400
H2580       H  0.47029798  0.83805406  0.95976471     0.30700
C2581       C  0.33525389  0.86090060  0.63004204     0.86100
C2582       C  0.33973680  0.85754005  0.59952443    -0.54100
C2583       C  0.35503753  0.88446291  0.58796061     0.09100
C2584       C  0.36604991  0.91235364  0.60799872     0.20000
C2585       C  0.37771366  0.87044630  0.63999848    -0.54800
C2586       C  0.39481708  0.89706879  0.62866396     0.09200
C2587       C  0.30942137  0.89198840  0.63407630    -0.54400
C2588       C  0.32533743  0.91931915  0.62286973     0.09700
H2589       H  0.33176240  0.83548258  0.58805293     0.14200
H2590       H  0.37868575  0.93344778  0.59778412     0.00000
H2591       H  0.39246334  0.85620501  0.65475716     0.14500
H2592       H  0.27967439  0.89224744  0.64328138     0.14300
C2593       C  0.33565630  0.88622539  0.51313273    -0.06100
C2594       C  0.37132332  0.89488115  0.00404449    -0.00200
C2595       C  0.40780869  0.89605826  0.52199653    -0.08800
C2596       C  0.39968308  0.89326017  0.54928252    -0.06200
C2597       C  0.36029475  0.88679746  0.55874306    -0.00200
C2598       C  0.32723263  0.88438806  0.54054076    -0.08700
C2599       C  0.28310655  0.88157738  0.54981258     0.61700
H2600       H  0.30669164  0.89064717  0.99936645     0.12400
H2601       H  0.42417776  0.89612821  0.56357888     0.12400
C2602       C  0.45046373  0.90523393  0.51295029     0.61900
F2603       F  0.25594078  0.88561006  0.52921946    -0.23200
F2604       F  0.27495707  0.90547756  0.56920291    -0.20600
F2605       F  0.27593359  0.85123724  0.55992073    -0.20300
F2606       F  0.44871385  0.93284024  0.49807628    -0.20300
F2607       F  0.46102758  0.87589061  0.99820179    -0.20600
F2608       F  0.47619775  0.91193200  0.53424158    -0.23300
C2609       C  0.31531294  0.71857195  0.88930854    -0.06100
C2610       C  0.27199154  0.71820801  0.88840606    -0.00200
C2611       C  0.25140304  0.74857443  0.89416619    -0.08800
C2612       C  0.27468865  0.77665025  0.90068721    -0.06200
C2613       C  0.31728334  0.77646305  0.90052671    -0.00200
C2614       C  0.33814027  0.74683704  0.89562654    -0.08700
C2615       C  0.38450027  0.74567676  0.89458002     0.61700
H2616       H  0.33228732  0.69735804  0.88264829     0.12400
H2617       H  0.25974587  0.79989994  0.90462982     0.12400
C2618       C  0.20546574  0.75317115  0.89267741     0.61900
F2619       F  0.39912970  0.71451539  0.88886921    -0.23200
F2620       F  0.40031591  0.75622534  0.91885902    -0.20600
F2621       F  0.39835251  0.76571187  0.87501928    -0.20300
F2622       F  0.18704422  0.74268553  0.91560680    -0.20300
F2623       F  0.18994899  0.73641165  0.87083413    -0.20600
F2624       F  0.19513701  0.78565511  0.89021145    -0.23300
C2625       C  0.25953704  0.57185611  0.87801131    -0.06100
C2626       C  0.27971224  0.59704643  0.86498557    -0.00200
C2627       C  0.32120044  0.59284535  0.85720812    -0.08800
C2628       C  0.34131376  0.56414456  0.86370810    -0.06200
C2629       C  0.32178144  0.53910156  0.87728402    -0.00200
C2630       C  0.27989081  0.54284083  0.88445332    -0.08700
C2631       C  0.25668936  0.51663789  0.89886074     0.61700
H2632       H  0.22812676  0.57578981  0.88423888     0.12400
H2633       H  0.37316618  0.56130080  0.85799166     0.12400
C2634       C  0.34626440  0.61748524  0.84207659     0.61900
F2635       F  0.21552282  0.52375915  0.90126341    -0.23200
F2636       F  0.27414518  0.01408691  0.92616292    -0.20600
F2637       F  0.25623690  0.98866471  0.88724343    -0.20300
F2638       F  0.37770749  0.62918342  0.85809801    -0.20300
F2639       F  0.32397882  0.64369116  0.83381285    -0.20600
F2640       F  0.36294179  0.60213753  0.81958373    -0.23300
C2641       C  0.24567980  0.64395531  0.78737222    -0.06100
C2642       C  0.21943475  0.66335701  0.80327716    -0.00200
C2643       C  0.18811175  0.68099978  0.79084590    -0.08800
C2644       C  0.18463061  0.67895771  0.76280833    -0.06200
C2645       C  0.21105467  0.65959545  0.74671188    -0.00200
C2646       C  0.24257412  0.64197814  0.75935700    -0.08700
C2647       C  0.27383631  0.62170965  0.74362589     0.61700
H2648       H  0.26903939  0.63032092  0.79719655     0.12400
H2649       H  0.16057241  0.69213139  0.75324073     0.12400
C2650       C  0.15799663  0.70143419  0.80718225     0.61900
F2651       F  0.30619144  0.61272681  0.75931469    -0.23200
F2652       F  0.28968166  0.63956538  0.72316241    -0.20600
F2653       F  0.25573039  0.59343419  0.73337469    -0.20300
F2654       F  0.17841555  0.72712834  0.81971654    -0.20300
F2655       F  0.13946613  0.68243333  0.82594425    -0.20600
F2656       F  0.12768531  0.71426046  0.79166344    -0.23300
C2657       C  0.26765564  0.79381362  0.65982976    -0.06100
C2658       C  0.28448407  0.76613371  0.64643633    -0.00200
C2659       C  0.32441095  0.76905079  0.63521696    -0.08800
C2660       C  0.34112015  0.80037667  0.63275829    -0.06200
C2661       C  0.32046180  0.82874118  0.64182454    -0.00200
C2662       C  0.28682683  0.82467236  0.65948122    -0.08700
C2663       C  0.27312183  0.85005262  0.68041327     0.61700
H2664       H  0.23940760  0.79142447  0.67096120     0.12400
H2665       H  0.36952686  0.80311128  0.62186943     0.12400
C2666       C  0.34964698  0.73996209  0.62519514     0.61900
F2667       F  0.26655555  0.83533378  0.70436898    -0.23200
F2668       F  0.23678287  0.86392142  0.67278249    -0.20600
F2669       F  0.30244717  0.87397818  0.68509683    -0.20300
F2670       F  0.33561615  0.72861772  0.60065399    -0.20300
F2671       F  0.34752827  0.71537556  0.64320947    -0.20600
F2672       F  0.39049691  0.74819774  0.62228105    -0.23300
C2673       C  0.28967047  0.50882124  0.62539294    -0.06100
C2674       C  0.24765600  0.50558119  0.62122917    -0.00200
C2675       C  0.23260346  0.97508710  0.62062089    -0.08800
C2676       C  0.25834564  0.94773742  0.61951121    -0.06200
C2677       C  0.30130573  0.95050546  0.62204997    -0.00200
C2678       C  0.31884902  0.98242146  0.62464155    -0.08700
C2679       C  0.36395786  0.98929018  0.62866160     0.61700
H2680       H  0.30198956  0.53318453  0.62900420     0.12400
H2681       H  0.24459230  0.92381507  0.61690241     0.12400
C2682       C  0.18645353  0.97081751  0.62135883     0.61900
F2683       F  0.36645220  0.51782100  0.64425943    -0.23200
F2684       F  0.38332569  0.99056004  0.60422997    -0.20600
F2685       F  0.38137302  0.96584098  0.64364845    -0.20300
F2686       F  0.16892949  0.98561465  0.60003531    -0.20300
F2687       F  0.17113915  0.98495845  0.64476602    -0.20600
F2688       F  0.17505514  0.93822688  0.62026708    -0.23300
C2689       C  0.15063163  0.62209304  0.95759046    -0.06100
C2690       C  0.11230435  0.63243838  0.94884371    -0.00200
C2691       C  0.08176789  0.64069540  0.96796729    -0.08800
C2692       C  0.09020158  0.63112178  0.49208216    -0.06200
C2693       C  0.12948292  0.62631102  0.50211561    -0.00200
C2694       C  0.16276556  0.62245401  0.48405318    -0.08700
C2695       C  0.20591175  0.61762907  0.49398471     0.61700
H2696       H  0.17361941  0.61572332  0.94271139     0.12400
H2697       H  0.06525950  0.63454751  0.50615738     0.12400
C2698       C  0.04040668  0.65273453  0.95982847     0.61900
F2699       F  0.22830659  0.60641597  0.97211629    -0.23200
F2700       F  0.20853060  0.58775412  0.50560217    -0.20600
F2701       F  0.21593452  0.64214405  0.51253056    -0.20300
F2702       F  0.02040216  0.62800911  0.94569471    -0.20300
F2703       F  0.04562355  0.67961498  0.94443725    -0.20600
F2704       F  0.01613931  0.66196711  0.98146014    -0.23300
C2705       C  0.43507589  0.93389874  0.74723001    -0.06100
C2706       C  0.46489731  0.91885549  0.76248062    -0.00200
C2707       C  0.49942464  0.90445822  0.74915513    -0.08800
C2708       C  0.50187882  0.90511025  0.72111662    -0.06200
C2709       C  0.47131416  0.91927687  0.70602832    -0.00200
C2710       C  0.43753565  0.93417462  0.71927840    -0.08700
C2711       C  0.40378897  0.94983595  0.70388801     0.61700
H2712       H  0.40890367  0.94472515  0.75739522     0.12400
H2713       H  0.52799043  0.89466783  0.71065949     0.12400
C2714       C  0.53435654  0.88937561  0.76417937     0.61900
F2715       F  0.37440459  0.96402136  0.72048924    -0.23200
F2716       F  0.38491898  0.92631207  0.68774948    -0.20600
F2717       F  0.42007132  0.97397425  0.68855945    -0.20300
F2718       F  0.52164274  0.86055988  0.77506009    -0.20300
F2719       F  0.54761644  0.91095095  0.78416847    -0.20600
F2720       F  0.56744417  0.88217303  0.74771641    -0.23300
C2721       C  0.02815698  0.57736741  0.85114059    -0.06100
C2722       C  0.06668366  0.57550146  0.86365258    -0.00200
C2723       C  0.08237671  0.54345620  0.86794848    -0.08800
C2724       C  0.05645956  0.51627529  0.86331690    -0.06200
C2725       C  0.01650650  0.51920529  0.85388514    -0.00200
C2726       C  0.00278183  0.55004591  0.84644567    -0.08700
C2727       C  0.96056094  0.55455457  0.83500782     0.61700
H2728       H  0.01590131  0.60035078  0.84601941     0.12400
H2729       H  0.07427983  0.99238261  0.86278395     0.11200
C2730       C  0.12625686  0.53653654  0.87633593     0.61900
F2731       F  0.95231708  0.58684184  0.82999283    -0.23200
F2732       F  0.93142484  0.54395889  0.85279129    -0.20600
F2733       F  0.95766859  0.53679812  0.81118418    -0.20300
F2734       F  0.13750011  0.55497616  0.89861476    -0.20300
F2735       F  0.15268711  0.54278378  0.85563157    -0.20600
F2736       F  0.13848289  0.00651580  0.87785643    -0.23300
C2737       C  0.00637637  0.73791753  0.88717407    -0.06100
C2738       C  0.02897716  0.76290686  0.87584399    -0.00200
C2739       C  0.07015934  0.75643128  0.86819699    -0.08800
C2740       C  0.08671112  0.72518715  0.87274908    -0.06200
C2741       C  0.06281390  0.69968763  0.88273982    -0.00200
C2742       C  0.02113675  0.70616998  0.88936464    -0.08700
C2743       C  0.98924843  0.68158891  0.89818719     0.61700
H2744       H  0.97557831  0.74289289  0.89373619     0.12400
H2745       H  0.11794798  0.71983830  0.86719892     0.12400
C2746       C  0.09642540  0.78217994  0.85539521     0.61900
F2747       F  0.97202468  0.69252203  0.92208794    -0.23200
F2748       F  0.00386588  0.65075045  0.90160265    -0.20600
F2749       F  0.95881356  0.67921587  0.87925778    -0.20300
F2750       F  0.09662056  0.81051622  0.87126488    -0.20300
F2751       F  0.08150965  0.78851240  0.83049016    -0.20600
F2752       F  0.13629301  0.77228797  0.85193990    -0.23300
C2753       C  0.83923610  0.88537855  0.69693412    -0.06100
C2754       C  0.85854109  0.91196131  0.68529972    -0.00200
C2755       C  0.87827499  0.93582041  0.70191617    -0.08800
C2756       C  0.87805143  0.93189372  0.72946733    -0.06200
C2757       C  0.86076573  0.90440910  0.74137689    -0.00200
C2758       C  0.83943377  0.88118779  0.72467710    -0.08700
C2759       C  0.81607901  0.85246962  0.73554407     0.61700
H2760       H  0.82339168  0.86792210  0.68392326     0.12400
H2761       H  0.89336592  0.95044243  0.74170115     0.12400
C2762       C  0.90119079  0.96551028  0.69222727     0.61900
F2763       F  0.79282126  0.83639704  0.71616386    -0.23200
F2764       F  0.78971892  0.86330304  0.75556862    -0.20600
F2765       F  0.84313947  0.83016037  0.74523428    -0.20300
F2766       F  0.87961825  0.99339345  0.69958811    -0.20300
F2767       F  0.90741047  0.96493078  0.66509906    -0.20600
F2768       F  0.93924520  0.96727483  0.70406144    -0.23300
C2769       C  0.78839340  0.56984602  0.83669857    -0.06100
C2770       C  0.75763981  0.57268107  0.85645853    -0.00200
C2771       C  0.74275606  0.54290653  0.86696104    -0.08800
C2772       C  0.76614314  0.51451962  0.86326139    -0.06200
C2773       C  0.80080454  0.51284454  0.84665793    -0.00200
C2774       C  0.80867843  0.53996856  0.83057460    -0.08700
C2775       C  0.83648170  0.53739622  0.80640270     0.61700
H2776       H  0.79633890  0.59100845  0.82563262     0.12400
H2777       H  0.76196089  0.99327937  0.86916222     0.12400
C2778       C  0.70270285  0.53818160  0.88185535     0.61900
F2779       F  0.83307740  0.56430518  0.79078057    -0.23200
F2780       F  0.82614271  0.51002558  0.79086748    -0.20600
F2781       F  0.87652474  0.53520304  0.81421965    -0.20300
F2782       F  0.67873004  0.56547966  0.88382669    -0.20300
F2783       F  0.71054549  0.52817222  0.90725216    -0.20600
F2784       F  0.68646701  0.00975361  0.86686624    -0.23300
C2785       C  0.81161813  0.70061159  0.88419806    -0.06100
C2786       C  0.77599887  0.69732640  0.86920992    -0.00200
C2787       C  0.76472054  0.72268610  0.85249619    -0.08800
C2788       C  0.78904430  0.75125452  0.85217828    -0.06200
C2789       C  0.82486880  0.75507707  0.86749930    -0.00200
C2790       C  0.83661453  0.72862352  0.88341527    -0.08700
C2791       C  0.87607313  0.72878118  0.89875083     0.61700
H2792       H  0.81985388  0.68062434  0.89655341     0.12400
H2793       H  0.77994673  0.77099350  0.83985881     0.12400
C2794       C  0.72742371  0.71945252  0.83485810     0.61900
F2795       F  0.88533696  0.69833788  0.90803592    -0.23200
F2796       F  0.87284534  0.75021568  0.92043346    -0.20600
F2797       F  0.90754508  0.73791406  0.88226163    -0.20300
F2798       F  0.69268236  0.71988707  0.85049575    -0.20300
F2799       F  0.72890933  0.69045148  0.81985430    -0.20600
F2800       F  0.72482973  0.74477054  0.81754264    -0.23300
C2801       C  0.50967848  0.49048861  0.60836079    -0.06100
C2802       C  0.52575898  0.97017732  0.62361425    -0.00200
C2803       C  0.56879055  0.97454929  0.62849337    -0.08800
C2804       C  0.59082527  0.49827314  0.62350786    -0.06200
C2805       C  0.57214738  0.52284793  0.60970049    -0.00200
C2806       C  0.53135952  0.51881796  0.60137944    -0.08700
C2807       C  0.51106048  0.54459203  0.58521313     0.61700
H2808       H  0.47800319  0.48871229  0.60294523     0.12400
H2809       H  0.62238817  0.50221991  0.62921760     0.12400
C2810       C  0.59587675  0.95419636  0.64610502     0.61900
F2811       F  0.47064818  0.53696913  0.57973336    -0.23200
F2812       F  0.53179715  0.54704491  0.56133719    -0.20600
F2813       F  0.51210051  0.57452105  0.59889472    -0.20300
F2814       F  0.62267339  0.93618738  0.63011345    -0.20300
F2815       F  0.57553550  0.93329076  0.66236879    -0.20600
F2816       F  0.61839756  0.97493630  0.66281825    -0.23300
C2817       C  0.53561091  0.79854978  0.61351320    -0.06100
C2818       C  0.55605792  0.78609051  0.63551456    -0.00200
C2819       C  0.55596703  0.80506097  0.65995322    -0.08800
C2820       C  0.53730678  0.83605487  0.66078752    -0.06200
C2821       C  0.51891953  0.84876775  0.63844870    -0.00200
C2822       C  0.51712839  0.82956293  0.61449560    -0.08700
C2823       C  0.49549514  0.84158998  0.59011204     0.61700
H2824       H  0.53526249  0.78418696  0.59500520     0.12400
H2825       H  0.53785172  0.85117679  0.67887899     0.12400
C2826       C  0.57455310  0.79302134  0.68535657     0.61900
F2827       F  0.49504182  0.81821859  0.56948399    -0.23200
F2828       F  0.51502471  0.86897589  0.58101496    -0.20600
F2829       F  0.45546097  0.84925154  0.59653744    -0.20300
F2830       F  0.61658769  0.79192023  0.68302408    -0.20300
F2831       F  0.55942203  0.76229137  0.69034378    -0.20600
F2832       F  0.56537520  0.81337221  0.70719498    -0.23300
C2833       C  0.75264944  0.64467611  0.95151561    -0.06100
C2834       C  0.71689261  0.64201103  0.93629390    -0.00200
C2835       C  0.67870430  0.63813533  0.94927062    -0.08800
C2836       C  0.67774620  0.63658645  0.97704719    -0.06200
C2837       C  0.71331553  0.63944401  0.99221095    -0.00200
C2838       C  0.75152106  0.64388766  0.97945711    -0.08700
C2839       C  0.79087882  0.64681442  0.99515160     0.61700
H2840       H  0.78162155  0.64695059  0.94119445     0.12400
H2841       H  0.64877685  0.63422166  0.98736403     0.12400
C2842       C  0.63892620  0.63623644  0.93418949     0.61900
F2843       F  0.82493997  0.64605097  0.97867290    -0.23200
F2844       F  0.79522160  0.62540817  0.51326711    -0.20600
F2845       F  0.78797271  0.67919905  0.50664733    -0.20300
F2846       F  0.60613360  0.62853346  0.95034619    -0.20300
F2847       F  0.64134763  0.61262417  0.91405183    -0.20600
F2848       F  0.63135107  0.66613009  0.92373690    -0.23300
C2849       C  0.75040947  0.50442982  0.60927499    -0.06100
C2850       C  0.77106268  0.52898599  0.59623655    -0.00200
C2851       C  0.81270903  0.52472425  0.58957333    -0.08800
C2852       C  0.83236716  0.49560541  0.59625971    -0.06200
C2853       C  0.80690380  0.96855172  0.60576639    -0.00200
C2854       C  0.76443003  0.97414021  0.61246858    -0.08700
C2855       C  0.73615222  0.95081668  0.62710184     0.61700
H2856       H  0.71866127  0.50855605  0.61482162     0.12400
H2857       H  0.85988657  0.99077866  0.58789760     0.12400
C2858       C  0.83631135  0.55104319  0.57555787     0.61900
F2859       F  0.70575843  0.96791199  0.64086698    -0.23200
F2860       F  0.75579695  0.93307779  0.64580950    -0.20600
F2861       F  0.71736713  0.92979301  0.60877495    -0.20300
F2862       F  0.84148106  0.57802141  0.59256286    -0.20300
F2863       F  0.81502896  0.56007037  0.55337259    -0.20600
F2864       F  0.87461031  0.54042280  0.56730672    -0.23300
C2865       C  0.79130684  0.79026386  0.61143640    -0.06100
C2866       C  0.74911042  0.79319693  0.61414953    -0.00200
C2867       C  0.73149186  0.82382645  0.62054505    -0.08800
C2868       C  0.75753045  0.85096701  0.62393727    -0.06200
C2869       C  0.80028834  0.84856978  0.62039873    -0.00200
C2870       C  0.81728772  0.81735899  0.61429993    -0.08700
C2871       C  0.86212781  0.81196550  0.60981888     0.61700
H2872       H  0.80390722  0.76614905  0.60733253     0.12400
H2873       H  0.74437977  0.87447995  0.62916516     0.12400
C2874       C  0.68549655  0.82787215  0.62299220     0.61900
F2875       F  0.86953239  0.78291141  0.59562186    -0.23200
F2876       F  0.88169138  0.81076905  0.63401038    -0.20600
F2877       F  0.87762492  0.83687916  0.59527379    -0.20300
F2878       F  0.67139068  0.81243457  0.64517173    -0.20300
F2879       F  0.66666191  0.81429747  0.60060083    -0.20600
F2880       F  0.67436540  0.86039417  0.62549401    -0.23300
C2881       C  0.57725491  0.57649423  0.86947086    -0.06100
C2882       C  0.55800848  0.59715633  0.85217231    -0.00200
C2883       C  0.52176151  0.58691303  0.83909227    -0.08800
C2884       C  0.50552354  0.55641097  0.84458532    -0.06200
C2885       C  0.52354036  0.53585328  0.86290782    -0.00200
C2886       C  0.56018684  0.54637146  0.87600676    -0.08700
C2887       C  0.58103389  0.52716340  0.89732712     0.61700
H2888       H  0.60516626  0.58497863  0.87867112     0.12400
H2889       H  0.47763761  0.54901779  0.83447085     0.12400
C2890       C  0.49884432  0.60632006  0.81891906     0.61900
F2891       F  0.61471007  0.54328761  0.90790817    -0.23200
F2892       F  0.58859627  0.99329730  0.87959780    -0.20600
F2893       F  0.55437932  0.52255439  0.91826966    -0.20300
F2894       F  0.51862690  0.63464803  0.81245329    -0.20300
F2895       F  0.46048272  0.61406304  0.82890969    -0.20600
F2896       F  0.49419216  0.58747467  0.79569549    -0.23300
C2897       C  0.57036064  0.74094357  0.88794712    -0.06100
C2898       C  0.55345895  0.71825927  0.86893204    -0.00200
C2899       C  0.51327266  0.72506605  0.85878883    -0.08800
C2900       C  0.49489894  0.75468711  0.86646276    -0.06200
C2901       C  0.51269364  0.77713678  0.88423160    -0.00200
C2902       C  0.55073405  0.77049863  0.89548976    -0.08700
C2903       C  0.57098977  0.79533101  0.91431838     0.61700
H2904       H  0.59958553  0.73651383  0.89659644     0.12400
H2905       H  0.46651183  0.76168499  0.85752199     0.12400
C2906       C  0.48811311  0.70274562  0.83979493     0.61900
F2907       F  0.60870578  0.78481371  0.92278200    -0.23200
F2908       F  0.54632653  0.80087556  0.93643541    -0.20600
F2909       F  0.57666405  0.82438908  0.90166433    -0.20300
F2910       F  0.47867871  0.67383611  0.85143463    -0.20300
F2911       F  0.50825782  0.69685882  0.81602636    -0.20600
F2912       F  0.45092069  0.71633956  0.83339240    -0.23300
C2913       C  0.63244894  0.69388206  0.77858172    -0.06100
C2914       C  0.62050716  0.66348769  0.78839456    -0.00200
C2915       C  0.62043574  0.63566164  0.77044921    -0.08800
C2916       C  0.62777580  0.64060824  0.74349426    -0.06200
C2917       C  0.63480289  0.67159068  0.73325509    -0.00200
C2918       C  0.63910415  0.69873781  0.75140944    -0.08700
C2919       C  0.65124728  0.73253831  0.74288308     0.61700
H2920       H  0.63645495  0.71429675  0.79261589     0.12400
H2921       H  0.62839071  0.61951176  0.72992252     0.12400
C2922       C  0.61434624  0.60044691  0.77831652     0.61900
F2923       F  0.65055457  0.75544070  0.76387312    -0.23200
F2924       F  0.62461328  0.74305224  0.72386682    -0.20600
F2925       F  0.69062052  0.73148260  0.73288783    -0.20300
F2926       F  0.58113245  0.59773053  0.79488793    -0.20300
F2927       F  0.64931218  0.58959722  0.79038703    -0.20600
F2928       F  0.60713437  0.57947438  0.75656071    -0.23300
C2929       C  0.05851319  0.83364111  0.63103221    -0.06100
C2930       C  0.02133773  0.82892914  0.61675509    -0.00200
C2931       C  0.00892413  0.79563048  0.61152960    -0.08800
C2932       C  0.03512888  0.77019937  0.61795542    -0.06200
C2933       C  0.07391460  0.77556976  0.62861922    -0.00200
C2934       C  0.08572795  0.80778102  0.63598906    -0.08700
C2935       C  0.12756447  0.81496046  0.64778635     0.61700
H2936       H  0.06729238  0.85762353  0.63824575     0.12400
H2937       H  0.02579617  0.74519354  0.61316396     0.12400
C2938       C  0.96981269  0.78369501  0.59839163     0.61900
F2939       F  0.13465534  0.84815411  0.65147470    -0.23200
F2940       F  0.15767128  0.80236176  0.63093969    -0.20600
F2941       F  0.13055549  0.80085455  0.67219378    -0.20300
F2942       F  0.97917137  0.76592974  0.57520464    -0.20300
F2943       F  0.94408609  0.80809275  0.59201481    -0.20600
F2944       F  0.94913064  0.76358376  0.61543299    -0.23300
C2945       C  0.02611196  0.96759219  0.57600690    -0.06100
C2946       C  0.01608686  0.95142129  0.59922958    -0.00200
C2947       C  0.02265633  0.96736385  0.62436757    -0.08800
C2948       C  0.04121733  0.99830025  0.62536103    -0.06200
C2949       C  0.05686656  0.51581318  0.60320823    -0.00200
C2950       C  0.04493603  0.50132520  0.57834805    -0.08700
C2951       C  0.04968255  0.51922621  0.55261706     0.61700
H2952       H  0.02043340  0.95506431  0.55702573     0.12400
H2953       H  0.04788676  0.00996320  0.64454885     0.12400
C2954       C  0.01151701  0.95177185  0.65036970     0.61900
F2955       F  0.03126734  0.50244396  0.53145475    -0.23200
F2956       F  0.09061503  0.52281636  0.54639983    -0.20600
F2957       F  0.03177739  0.54970159  0.55536271    -0.20300
F2958       F  0.04120452  0.92961983  0.65680507    -0.20300
F2959       F  0.97430929  0.93591293  0.64832938    -0.20600
F2960       F  0.00854891  0.97495635  0.67104512    -0.23300
C2961       C  0.00077689  0.88950805  0.51985505    -0.06100
C2962       C  0.96675051  0.87954666  0.53449580    -0.00200
C2963       C  0.93116314  0.86857301  0.52093633    -0.08800
C2964       C  0.93217744  0.87387842  0.99387799    -0.06200
C2965       C  0.96576383  0.88435055  0.97903795    -0.00200
C2966       C  0.00132404  0.89587881  0.99265700    -0.08700
C2967       C  0.03891342  0.90749021  0.97785963     0.61700
H2968       H  0.02776341  0.89750863  0.53068147     0.12400
H2969       H  0.90515325  0.86549198  0.98329030     0.12400
C2970       C  0.89450727  0.85579038  0.53577392     0.61900
F2971       F  0.07189193  0.91245326  0.99465763    -0.23200
F2972       F  0.03066200  0.93679096  0.96635657    -0.20600
F2973       F  0.05011587  0.88445422  0.95835531    -0.20300
F2974       F  0.88131076  0.87896782  0.55454701    -0.20300
F2975       F  0.90554546  0.82762696  0.54799430    -0.20600
F2976       F  0.86211285  0.84828591  0.51901288    -0.23300
loop_ 
_geom_bond_atom_site_label_1 
_geom_bond_atom_site_label_2 
_geom_bond_distance 
_geom_bond_site_symmetry_2 
_ccdc_geom_bond_type 
C1            C2   1.547   1_655  S
C1            C7   1.539       .  S
C1            C5   1.554       .  S
C1          C698   1.562   1_655  S
C2            H9   1.079       .  S
C2            C3   1.364       .  D
C3            C4   1.536   1_455  S
C3          C714   1.487       .  S
C4            C8   1.540       .  S
C4            C6   1.550       .  S
C4           H10   1.105       .  S
C5           H11   1.083       .  S
C5            C6   1.380       .  D
C6          C174   1.521       .  S
C7           H12   1.086   1_655  S
C7            C8   1.360       .  D
C8          C730   1.484       .  S
C13          C14   1.523       .  S
C13          C19   1.532       .  S
C13          C17   1.562       .  S
C13         C666   1.549       .  S
C14          H21   1.084       .  S
C14          C15   1.352       .  D
C15          C16   1.533       .  S
C15         C650   1.470       .  S
C16          C20   1.535       .  S
C16          C18   1.542       .  S
C16          H22   1.086       .  S
C17          H23   1.077       .  S
C17          C18   1.380       .  D
C18          C96   1.509       .  S
C19          H24   1.086       .  S
C19          C20   1.371       .  D
C20         C682   1.504       .  S
Zr25         O26   2.441       .  S
Zr25         O27   2.456       .  S
Zr25         O28   2.451       .  S
Zr25         O31   2.456       .  S
Zr25         O33   2.389       .  S
Zr25         O34   2.379       .  S
Zr25         O35   2.417       .  S
Zr25         O36   2.408       .  S
O26          H82   0.990       .  S
O26          H90   0.990       .  S
O27          C47   1.288       .  A
O28          C49   1.287       .  A
O29         Zr39   2.413       .  S
O29          C48   1.280       .  A
O30         Zr38   2.415       .  S
O30          C49   1.280       .  A
O31          C48   1.288       .  A
O32         Zr40   2.404       .  S
O32          C47   1.278       .  A
O33         Zr38   2.396       .  S
O33         Zr40   2.376       .  S
O34         Zr39   2.388       .  S
O34         Zr40   2.383       .  S
O34          H69   0.966       .  S
O35         Zr38   2.401       .  S
O35         Zr55   2.400       .  S
O35          H72   0.966       .  S
O36         Zr39   2.383       .  S
O36         Zr55   2.398       .  S
Zr37         O62   2.436       .  S
Zr37         O56   2.434       .  S
Zr37         O64   2.444       .  S
Zr37         O52   2.423       .  S
Zr37         O43   2.389       .  S
Zr37         O44   2.407       .  S
Zr37         O45   2.379       .  S
Zr37         O46   2.384       .  S
Zr38         O57   2.436       .  S
Zr38         O50   2.436       .  S
Zr38         O51   2.421       .  S
Zr38         O44   2.395       .  S
Zr38         O45   2.390       .  S
Zr39         O41   2.436       .  S
Zr39         O63   2.440       .  S
Zr39         O65   2.410       .  S
Zr39         O43   2.385       .  S
Zr39         O46   2.384       .  S
Zr40         O66   2.435       .  S
Zr40         O67   2.435       .  S
Zr40         O42   2.436       .  S
Zr40         O43   2.383       .  S
Zr40         O44   2.388       .  S
O41          H78   0.990       .  S
O42          H73   0.990       .  S
O42          H87   0.990       .  S
O44          H70   0.966       .  S
O45         Zr55   2.373       .  S
O46         Zr55   2.380       .  S
O46          H71   0.966       .  S
C47         C618   1.475       .  S
C48         C573   1.476       .  S
C49        C1349   1.474   1_554  S
O50          H86   0.990       .  S
O51          C53   1.282       .  A
O52          C53   1.278       .  A
C53         C634   1.470       .  S
O54         Zr55   2.438       .  S
O54          H83   0.990       .  S
Zr55         O58   2.437       .  S
Zr55         O59   2.439       .  S
Zr55         O60   2.428       .  S
O56          C61   1.282       .  A
O57          H74   0.990       .  S
O57          H89   0.990       .  S
O58          H75   0.990       .  S
O59          H79   0.990       .  S
O59          H88   0.990       .  S
O60          C61   1.285       .  A
C61         C586   1.498       .  S
O62          H81   0.991       .  S
O62          H85   0.990       .  S
O63          H77   0.990       .  S
O63          H84   0.990       .  S
O64          C68   1.284       .  A
O65          C68   1.283       .  A
O66          H76   0.990       .  S
O67          H80   0.990       .  S
C68         C685   1.497       .  S
C91          C92   1.536       .  S
C91          C97   1.545       .  S
C91          C95   1.535       .  S
C91         C538   1.550       .  S
C92          H99   1.085       .  S
C92          C93   1.358       .  D
C93          C94   1.540       .  S
C93         C602   1.484       .  S
C94          C98   1.545       .  S
C94          C96   1.547       .  S
C94         H100   1.107       .  S
C95         H101   1.080       .  S
C95          C96   1.376       .  D
C97         H102   1.083       .  S
C97          C98   1.371       .  D
C98         C554   1.490       .  S
Zr103       O104   2.440       .  S
Zr103       O105   2.458       .  S
Zr103       O106   2.427       .  S
Zr103       O109   2.457       .  S
Zr103       O111   2.389       .  S
Zr103       O112   2.379       .  S
Zr103       O113   2.417       .  S
Zr103       O114   2.400       .  S
O104        H160   0.990       .  S
O104        H168   0.990       .  S
O105        C125   1.285       .  A
O106        C127   1.284       .  A
O107       Zr117   2.400   1_455  S
O107        C126   1.279   1_455  A
O108       Zr116   2.445       .  S
O108        C127   1.285       .  A
O109        C126   1.288       .  A
O110       Zr118   2.411       .  S
O110        C125   1.282       .  A
O111       Zr116   2.399       .  S
O111       Zr118   2.375       .  S
O112       Zr117   2.394       .  S
O112       Zr118   2.378       .  S
O112        H147   0.966       .  S
O113       Zr116   2.403       .  S
O113       Zr133   2.395       .  S
O113        H150   0.965       .  S
O114       Zr117   2.381       .  S
O114       Zr133   2.393       .  S
Zr115       O140   2.433       .  S
Zr115       O134   2.433       .  S
Zr115       O142   2.463       .  S
Zr115       O130   2.469       .  S
Zr115       O121   2.393       .  S
Zr115       O122   2.413       .  S
Zr115       O123   2.381       .  S
Zr115       O124   2.384       .  S
Zr116       O135   2.436       .  S
Zr116       O128   2.433       .  S
Zr116       O129   2.442       .  S
Zr116       O122   2.407       .  S
Zr116       O123   2.389       .  S
Zr117       O119   2.436   1_655  S
Zr117       O141   2.441       .  S
Zr117       O143   2.398       .  S
Zr117       O121   2.387       .  S
Zr117       O124   2.394       .  S
Zr118       O144   2.437       .  S
Zr118       O145   2.436       .  S
Zr118       O120   2.436       .  S
Zr118       O121   2.382       .  S
Zr118       O122   2.394       .  S
O119        H156   0.990       .  S
O120        H151   0.990       .  S
O120        H165   0.990       .  S
O122        H148   0.966       .  S
O123       Zr133   2.376       .  S
O124       Zr133   2.384       .  S
O124        H149   0.966   1_655  S
C125       C2029   1.506       .  S
C126       C1981   1.489   1_655  S
C127        C525   1.505       .  S
O128        H164   0.990       .  S
O129        C131   1.288       .  A
O130        C131   1.291       .  A
C131        C557   1.510       .  S
O132       Zr133   2.440   1_455  S
O132        H161   0.990       .  S
Zr133       O136   2.437       .  S
Zr133       O137   2.441   1_655  S
Zr133       O138   2.421   1_655  S
O134        C139   1.284   1_655  A
O135        H152   0.990       .  S
O135        H167   0.990       .  S
O136        H153   0.990       .  S
O137        H157   0.990       .  S
O137        H166   0.989       .  S
O138        C139   1.280       .  A
C139        C506   1.491       .  S
O140        H159   0.989       .  S
O140        H163   0.989       .  S
O141        H155   0.990       .  S
O141        H162   0.990       .  S
O142        C146   1.291       .  A
O143        C146   1.276       .  A
O144        H154   0.990       .  S
O145        H158   0.990       .  S
C146        C733   1.484       .  S
C169        C170   1.531       .  S
C169        C175   1.529       .  S
C169        C173   1.556       .  S
C169        C621   1.549       .  S
C170        H177   1.087       .  S
C170        C171   1.358       .  D
C171        C172   1.539       .  S
C171        C522   1.485       .  S
C172        C176   1.555       .  S
C172        C174   1.557       .  S
C172        H178   1.104       .  S
C173        H179   1.076       .  S
C173        C174   1.381       .  D
C175        H180   1.086       .  S
C175        C176   1.364       .  D
C176        C637   1.506       .  S
C181        C182   1.534       .  S
C181        C187   1.540       .  S
C181        C185   1.563       .  S
C181        C570   1.556       .  S
C182        H189   1.080       .  S
C182        C183   1.358       .  D
C183        C184   1.531       .  S
C183        C589   1.480       .  S
C184        C188   1.532       .  S
C184        C186   1.549       .  S
C184        H190   1.104       .  S
C185        H191   1.078       .  S
C185        C186   1.382       .  D
C186        C354   1.506       .  S
C187        H192   1.087       .  S
C187        C188   1.358       .  D
C188        C477   1.489       .  S
C193        C194   1.549       .  S
C193        C199   1.544       .  S
C193        C197   1.529       .  S
C193        C490   1.550       .  S
C194        H201   1.079       .  S
C194        C195   1.361       .  D
C195        C196   1.551       .  S
C195        C509   1.498       .  S
C196        C200   1.541       .  S
C196        C198   1.562       .  S
C196        H202   1.107       .  S
C197        H203   1.077       .  S
C197        C198   1.366       .  D
C198        C276   1.506       .  S
C199        H204   1.086       .  S
C199        C200   1.363       .  D
C200        C458   1.497       .  S
Zr205       O206   2.441       .  S
Zr205       O207   2.450       .  S
Zr205       O208   2.486       .  S
Zr205       O211   2.461       .  S
Zr205       O213   2.387       .  S
Zr205       O214   2.396       .  S
Zr205       O215   2.411       .  S
Zr205       O216   2.416       .  S
O206        H262   0.990       .  S
O206        H270   0.990       .  S
O207        C227   1.287       .  A
O208        C229   1.293       .  A
O209       Zr219   2.401       .  S
O209        C228   1.281       .  A
O210       Zr218   2.426       .  S
O210        C229   1.281       .  A
O211        C228   1.288       .  A
O212       Zr220   2.392       .  S
O212        C227   1.275       .  A
O213       Zr218   2.395       .  S
O213       Zr220   2.385       .  S
O214       Zr219   2.389       .  S
O214       Zr220   2.377       .  S
O214        H249   0.966       .  S
O215       Zr218   2.401       .  S
O215       Zr235   2.399       .  S
O215        H252   0.965       .  S
O216       Zr219   2.394       .  S
O216       Zr235   2.395       .  S
Zr217       O242   2.440       .  S
Zr217       O236   2.426       .  S
Zr217       O244   2.449       .  S
Zr217       O232   2.434       .  S
Zr217       O223   2.395       .  S
Zr217       O224   2.404       .  S
Zr217       O225   2.386       .  S
Zr217       O226   2.385       .  S
Zr218       O237   2.436       .  S
Zr218       O230   2.436       .  S
Zr218       O231   2.416       .  S
Zr218       O224   2.401       .  S
Zr218       O225   2.391       .  S
Zr219       O221   2.438       .  S
Zr219       O243   2.436       .  S
Zr219       O245   2.430       .  S
Zr219       O223   2.380       .  S
Zr219       O226   2.388       .  S
Zr220       O246   2.436       .  S
Zr220       O247   2.435       .  S
Zr220       O222   2.436       .  S
Zr220       O223   2.382       .  S
Zr220       O224   2.374       .  S
O221        H258   0.990       .  S
O222        H253   0.989       .  S
O222        H267   0.990       .  S
O224        H250   0.965       .  S
O225       Zr235   2.373       .  S
O226       Zr235   2.381       .  S
O226        H251   0.966       .  S
C227        C426   1.485       .  S
C228        C701   1.488       .  S
C229        C413   1.509       .  S
O230        H266   0.990       .  S
O231        C233   1.282       .  A
O232        C233   1.282       .  A
C233        C442   1.468       .  S
O234       Zr235   2.439       .  S
O234        H263   0.991       .  S
Zr235       O238   2.439       .  S
Zr235       O239   2.440       .  S
Zr235       O240   2.425       .  S
O236        C241   1.281       .  A
O237        H254   0.990       .  S
O237        H269   0.990       .  S
O238        H255   0.990       .  S
O239        H259   0.990       .  S
O239        H268   0.989       .  S
O240        C241   1.283       .  A
C241        C717   1.481       .  S
O242        H261   0.991       .  S
O242        H265   0.990       .  S
O243        H257   0.990       .  S
O243        H264   0.990       .  S
O244        C248   1.286       .  A
O245        C248   1.283       .  A
O246        H256   0.990       .  S
O247        H260   0.990       .  S
C248        C461   1.482       .  S
C271        C272   1.545       .  S
C271        C277   1.540       .  S
C271        C275   1.543       .  S
C271        C378   1.554       .  S
C272        H279   1.086       .  S
C272        C273   1.364       .  D
C273        C274   1.541       .  S
C273        C410   1.502       .  S
C274        C278   1.545       .  S
C274        C276   1.560       .  S
C274        H280   1.106       .  S
C275        H281   1.072       .  S
C275        C276   1.370       .  D
C277        H282   1.086       .  S
C277        C278   1.357       .  D
C278        C394   1.486       .  S
Zr283       O284   2.440       .  S
Zr283       O285   2.442       .  S
Zr283       O286   2.454       .  S
Zr283       O289   2.447       .  S
Zr283       O291   2.391       .  S
Zr283       O292   2.384       .  S
Zr283       O293   2.408       .  S
Zr283       O294   2.399       .  S
O284        H340   0.990       .  S
O284        H348   0.989       .  S
O285        C305   1.284       .  A
O286        C307   1.287       .  A
O287       Zr297   2.396       .  S
O287        C306   1.278       .  A
O288       Zr296   2.435       .  S
O288        C307   1.284       .  A
O289        C306   1.286       .  A
O290       Zr298   2.408       .  S
O290        C305   1.279       .  A
O291       Zr296   2.403       .  S
O291       Zr298   2.381       .  S
O292       Zr297   2.392       .  S
O292       Zr298   2.376       .  S
O292        H327   0.964       .  S
O293       Zr296   2.410       .  S
O293       Zr313   2.372       .  S
O293        H330   0.964       .  S
O294       Zr297   2.392       .  S
O294       Zr313   2.385       .  S
Zr295       O320   2.442       .  S
Zr295       O322   2.448       .  S
Zr295      O1802   2.420       .  S
Zr295      O1798   2.429       .  S
Zr295       O301   2.389       .  S
Zr295       O302   2.408       .  S
Zr295       O303   2.382       .  S
Zr295       O304   2.374       .  S
Zr296       O315   2.438       .  S
Zr296       O308   2.433       .  S
Zr296       O309   2.451       .  S
Zr296       O302   2.401       .  S
Zr296       O303   2.395       .  S
Zr297       O299   2.435       .  S
Zr297       O321   2.438       .  S
Zr297       O323   2.420       .  S
Zr297       O301   2.386       .  S
Zr297       O304   2.377       .  S
Zr298       O324   2.435       .  S
Zr298       O325   2.435       .  S
Zr298       O300   2.437       .  S
Zr298       O301   2.394       .  S
Zr298       O302   2.388       .  S
O299        H336   0.990       .  S
O300        H331   0.990       .  S
O300        H345   0.990       .  S
O302        H328   0.965       .  S
O303       Zr313   2.384       .  S
O304       Zr313   2.384       .  S
O304        H329   0.966       .  S
C305        C381   1.475       .  S
C306        C669   1.465       .  S
C307        C362   1.476       .  S
O308        H344   0.989       .  S
O309       C1799   1.286       .  A
O310      Zr1783   2.440       .  S
O310        C311   1.286   1_565  A
C311       O1797   1.286   1_545  A
C311        C397   1.502       .  S
O312       Zr313   2.444       .  S
O312        H341   0.990       .  S
Zr313       O316   2.440       .  S
Zr313       O317   2.440       .  S
Zr313       O318   2.392       .  S
O314      Zr1783   2.428       .  S
O314        C319   1.285   1_565  A
O315        H332   0.990       .  S
O315        H347   0.990       .  S
O316        H333   0.989       .  S
O317        H337   0.989       .  S
O317        H346   0.990       .  S
O318       C1807   1.274       .  A
C319       O1806   1.273   1_545  A
C319        C653   1.489       .  S
O320        H339   0.990       .  S
O320        H343   0.991       .  S
O321        H335   0.990       .  S
O321        H342   0.990       .  S
O322        C326   1.288       .  A
O323        C326   1.280       .  A
O324        H334   0.989       .  S
O325        H338   0.990       .  S
C326        C474   1.493       .  S
C349        C350   1.546       .  S
C349        C355   1.533       .  S
C349        C353   1.523       .  S
C349        C429   1.537       .  S
C350        H357   1.083       .  S
C350        C351   1.366       .  D
C351        C352   1.538       .  S
C351        C365   1.495       .  S
C352        C356   1.545       .  S
C352        C354   1.556       .  S
C352        H358   1.102       .  S
C353        H359   1.080       .  S
C353        C354   1.369       .  D
C355        H360   1.078       .  S
C355        C356   1.367       .  D
C356        C445   1.498       .  S
C361        C366   1.410       .  A
C361       C1106   1.398       .  A
C361       H1112   1.083   1_554  S
C362       C1105   1.397       .  A
C362       C1107   1.417       .  A
C363        C370   1.517       .  S
C363        C364   1.409       .  A
C363       C1106   1.416       .  A
C364        C365   1.405       .  A
C364        H369   1.083       .  S
C365        C366   1.425       .  A
C366        C367   1.521       .  S
C367        F371   1.385       .  S
C367        F372   1.382       .  S
C367        F373   1.380       .  S
H368       C1105   1.084       .  S
C370        F374   1.383   1_554  S
C370        F376   1.385       .  S
C370       F1119   1.381   1_554  S
F375       C1114   1.380       .  S
C377        C378   1.419       .  A
C377        C382   1.402       .  A
C377        H384   1.077       .  S
C378        C379   1.437       .  A
C379        C386   1.518       .  S
C379        C380   1.411       .  A
C380        C381   1.395       .  A
C380        H385   1.083       .  S
C381        C382   1.407       .  A
C382        C383   1.518       .  S
C383        F387   1.385       .  S
C383        F388   1.382       .  S
C383        F389   1.382       .  S
C386        F390   1.381       .  S
C386        F391   1.376       .  S
C386        F392   1.385       .  S
C393        C394   1.403       .  A
C393        C398   1.416       .  A
C393        H400   1.084       .  S
C394        C395   1.420       .  A
C395        C402   1.521       .  S
C395        C396   1.403       .  A
C396        C397   1.407       .  A
C396        H401   1.085       .  S
C397        C398   1.426       .  A
C398        C399   1.518       .  S
C399        F403   1.385       .  S
C399       F1892   1.383       .  S
C399       F1893   1.383   1_545  S
C402        F406   1.383       .  S
C402        F407   1.378       .  S
C402        F408   1.384       .  S
F404       C1887   1.382       .  S
F405       C1887   1.383       .  S
C409        C410   1.400       .  A
C409        C414   1.413       .  A
C409        H416   1.080       .  S
C410        C411   1.417       .  A
C411        C418   1.516       .  S
C411        C412   1.417       .  A
C412        C413   1.410       .  A
C412        H417   1.083       .  S
C413        C414   1.429       .  A
C414        C415   1.521       .  S
C415        F419   1.385       .  S
C415        F420   1.384       .  S
C415        F421   1.382       .  S
C418        F422   1.381       .  S
C418        F423   1.383       .  S
C418        F424   1.384       .  S
C425        C426   1.403       .  A
C425        C430   1.406       .  A
C425        H432   1.084       .  S
C426        C427   1.423       .  A
C427        C434   1.517       .  S
C427        C428   1.400       .  A
C428        C429   1.404       .  A
C428        H433   1.084       .  S
C429        C430   1.426       .  A
C430        C431   1.517       .  S
C431        F435   1.385       .  S
C431        F436   1.383       .  S
C431        F437   1.383       .  S
C434        F438   1.383       .  S
C434        F439   1.384       .  S
C434        F440   1.385       .  S
C441        C442   1.398       .  A
C441       C1934   1.400   1_545  A
C441        H448   1.085       .  S
C442       C1931   1.410   1_545  A
C443        C450   1.519       .  S
C443        C444   1.405       .  A
C443       C1930   1.410       .  A
C444        C445   1.413       .  A
C444        H449   1.082       .  S
C445        C446   1.424       .  A
C446        C447   1.514       .  S
C446       C1929   1.402       .  A
C447        F452   1.382       .  S
C447        F453   1.371       .  S
C447       F1939   1.385       .  S
C450        F454   1.382       .  S
C450        F455   1.384       .  S
C450        F456   1.385       .  S
F451       C1935   1.385   1_545  S
C457        C458   1.405       .  A
C457       C1206   1.415       .  A
C457        H464   1.083       .  S
C458        C459   1.419       .  A
C459        C466   1.512       .  S
C459       C1204   1.407       .  A
C460        C461   1.398   1_556  A
C460       C1203   1.408       .  A
C460        H465   1.084   1_556  S
C461        C462   1.417   1_554  A
C462        C463   1.514       .  S
C462       C1201   1.411       .  A
C463        F468   1.380   1_556  S
C463        F469   1.383   1_556  S
C463       F1211   1.384       .  S
C466        F470   1.381       .  S
C466        F471   1.381       .  S
C466        F472   1.385       .  S
F467       C1207   1.384       .  S
C473        C474   1.405       .  A
C473        C478   1.405       .  A
C473        H480   1.083       .  S
C474        C475   1.426       .  A
C475        C482   1.518       .  S
C475        C476   1.410       .  A
C476        C477   1.399       .  A
C476        H481   1.082       .  S
C477        C478   1.414       .  A
C478        C479   1.510       .  S
C479        F483   1.385       .  S
C479        F484   1.381       .  S
C479        F485   1.381       .  S
C482        F486   1.383       .  S
C482        F487   1.383       .  S
C482        F488   1.385       .  S
C489        C490   1.415       .  A
C489        C494   1.403       .  A
C489        H496   1.068       .  S
C490        C491   1.437       .  A
C491        C498   1.534       .  S
C491        C492   1.410       .  A
C492        C493   1.403       .  A
C492       H1985   1.083   1_545  S
C493       C1614   1.488   1_445  S
C493        C494   1.409       .  A
C494        C495   1.514   1_455  S
C495        F499   1.384       .  S
C495        F500   1.383       .  S
C495        F501   1.382       .  S
H497       C1980   1.083       .  S
C498        F502   1.377       .  S
C498        F503   1.380       .  S
C498       F1992   1.385       .  S
F504       C1986   1.385       .  S
C505        C506   1.400   1_655  A
C505        C510   1.403   1_655  A
C505        H512   1.085       .  S
C506        C507   1.419       .  A
C507        C514   1.518       .  S
C507        C508   1.414       .  A
C508        C509   1.407       .  A
C508        H513   1.082       .  S
C509        C510   1.431       .  A
C510        C511   1.525   1_455  S
C511        F515   1.385       .  S
C511        F516   1.374       .  S
C511        F517   1.384       .  S
C514        F518   1.383       .  S
C514        F519   1.383       .  S
C514        F520   1.376       .  S
C521        C522   1.402       .  A
C521        C526   1.412       .  A
C521        H528   1.083       .  S
C522        C523   1.418       .  A
C523        C530   1.523       .  S
C523        C524   1.402       .  A
C524        C525   1.411       .  A
C524        H529   1.082       .  S
C525        C526   1.426       .  A
C526        C527   1.518       .  S
C527        F531   1.385       .  S
C527        F532   1.384       .  S
C527        F533   1.381       .  S
C530        F534   1.383       .  S
C530        F535   1.380       .  S
C530        F536   1.384       .  S
C537        C538   1.413       .  A
C537        C542   1.419       .  A
C537        H544   1.080       .  S
C538        C539   1.428       .  A
C539        C546   1.520       .  S
C539        C540   1.399       .  A
C540        C541   1.407       .  A
C540       H2033   1.084   1_545  S
C541       C1613   1.511   1_545  S
C541        C542   1.423       .  A
C542        C543   1.515       .  S
C543        F547   1.385       .  S
C543        F548   1.383       .  S
C543        F549   1.374       .  S
H545       C2028   1.085       .  S
C546        F550   1.369       .  S
C546        F551   1.383       .  S
C546       F2040   1.384       .  S
F552       C2034   1.384       .  S
C553        C554   1.398       .  A
C553        C558   1.410       .  A
C553        H560   1.083       .  S
C554        C555   1.416       .  A
C555        C562   1.521       .  S
C555        C556   1.412       .  A
C556        C557   1.413       .  A
C556        H561   1.083       .  S
C557        C558   1.427       .  A
C558        C559   1.513       .  S
C559        F563   1.385       .  S
C559        F564   1.383       .  S
C559        F565   1.379       .  S
C562        F566   1.384       .  S
C562        F567   1.381       .  S
C562        F568   1.384       .  S
C569        C574   1.413   1_565  A
C569       C2058   1.419       .  A
C569        H576   1.075       .  S
C570        C571   1.446       .  A
C570       C2057   1.417       .  A
C571        C578   1.536       .  S
C571       C2060   1.410       .  A
C572        C573   1.391   1_565  A
C572       C2059   1.407       .  A
C572        H577   1.084   1_565  S
C573        C574   1.409       .  A
C574        C575   1.519       .  S
C575        F579   1.385       .  S
C575        F580   1.383       .  S
C575        F581   1.383       .  S
C578        F582   1.380       .  S
C578        F583   1.378       .  S
C578        F584   1.384       .  S
C585        C586   1.411       .  A
C585        C590   1.405       .  A
C585        H592   1.082       .  S
C586        C587   1.427       .  A
C587        C594   1.519       .  S
C587        C588   1.408       .  A
C588        C589   1.398       .  A
C588        H593   1.082       .  S
C589        C590   1.413       .  A
C590        C591   1.521       .  S
C591        F595   1.385       .  S
C591        F596   1.381       .  S
C591        F597   1.381       .  S
C594        F598   1.381       .  S
C594        F599   1.383       .  S
C594        F600   1.386       .  S
C601        C602   1.404       .  A
C601        C606   1.410       .  A
C601        H608   1.083       .  S
C602        C603   1.416       .  A
C603        C610   1.509       .  S
C603        C604   1.400       .  A
C604        C605   1.398       .  A
C604        H609   1.084       .  S
C605        C793   1.475       .  S
C605        C606   1.418       .  A
C606        C607   1.518       .  S
C607        F611   1.385       .  S
C607       F1356   1.384       .  S
C607       F1357   1.382       .  S
C610        F614   1.385       .  S
C610        F615   1.373       .  S
C610        F616   1.376       .  S
F612       C1351   1.383   1_554  S
F613       C1351   1.381   1_554  S
C617        C618   1.391       .  A
C617       C2110   1.404   1_545  A
C617        H624   1.086       .  S
C618        C619   1.408       .  A
C619        C626   1.517       .  S
C619        C620   1.413   1_545  A
C620       C2109   1.418       .  A
C620       H2113   1.074       .  S
C621        C622   1.442       .  A
C621       C2108   1.416       .  A
C622        C623   1.531       .  S
C622       C2105   1.406       .  A
C623        F627   1.385       .  S
C623        F628   1.373       .  S
C623        F629   1.383       .  S
H625       C2108   1.074       .  S
C626        F630   1.382       .  S
C626        F631   1.384       .  S
C626        F632   1.384       .  S
C633        C634   1.393       .  A
C633        C638   1.400       .  A
C633        H640   1.085       .  S
C634        C635   1.412       .  A
C635        C642   1.519       .  S
C635        C636   1.407       .  A
C636        C637   1.412       .  A
C636        H641   1.079       .  S
C637        C638   1.420       .  A
C638        C639   1.498       .  S
C639        F643   1.386       .  S
C639        F644   1.382       .  S
C639        F645   1.369       .  S
C642        F646   1.381       .  S
C642        F647   1.384       .  S
C642        F648   1.385       .  S
C649        C650   1.394       .  A
C649        C654   1.405       .  A
C649        H656   1.077       .  S
C650        C651   1.416       .  A
C651        C658   1.517       .  S
C651        C652   1.393       .  A
C652        C653   1.405       .  A
C652        H657   1.084       .  S
C653        C654   1.430       .  A
C654        C655   1.522       .  S
C655        F659   1.380       .  S
C655        F661   1.383       .  S
C655       F2148   1.381   1_545  S
C658        F662   1.375       .  S
C658        F663   1.383       .  S
C658        F664   1.384       .  S
F660       C2143   1.381       .  S
C665        C666   1.418       .  A
C665        C670   1.410       .  A
C665        H672   1.073       .  S
C666        C667   1.449       .  A
C667        C674   1.537       .  S
C667        C668   1.399       .  A
C668        C669   1.385       .  A
C668        H673   1.078       .  S
C669        C670   1.403       .  A
C670        C671   1.516       .  S
C671        F675   1.384       .  S
C671        F676   1.383       .  S
C671        F677   1.384       .  S
C674        F678   1.375       .  S
C674        F679   1.375       .  S
C674        F680   1.385       .  S
C681        C682   1.409       .  A
C681        C686   1.404       .  A
C681        H688   1.082       .  S
C682        C683   1.425       .  A
C683        C690   1.522       .  S
C683        C684   1.402       .  A
C684        C685   1.407       .  A
C684        H689   1.081       .  S
C685        C686   1.420       .  A
C686        C687   1.516       .  S
C687        F691   1.385       .  S
C687        F692   1.382       .  S
C687        F693   1.380       .  S
C690        F694   1.374       .  S
C690        F695   1.383       .  S
C690        F696   1.385       .  S
C697        C698   1.424       .  A
C697        C702   1.418       .  A
C697        H704   1.075       .  S
C698        C699   1.436       .  A
C699        C706   1.513   1_455  S
C699        C700   1.398       .  A
C700        C701   1.394       .  A
C700        H705   1.087       .  S
C701        C702   1.411       .  A
C702        C703   1.517       .  S
C703        F707   1.384       .  S
C703        F708   1.384       .  S
C703        F709   1.382       .  S
C706        F710   1.384       .  S
C706        F711   1.357       .  S
C706        F712   1.384       .  S
C713        C714   1.405       .  A
C713       C2206   1.412       .  A
C713        H720   1.082       .  S
C714        C715   1.419       .  A
C715        C722   1.521       .  S
C715        C716   1.401       .  A
C716       C2205   1.401       .  A
C716        H721   1.084       .  S
C717        C718   1.418   1_545  A
C717       C2204   1.401   1_545  A
C718        C719   1.518   1_565  S
C718       C2201   1.409       .  A
C719        F723   1.385       .  S
C719        F724   1.383       .  S
C719        F725   1.384       .  S
C722        F726   1.382       .  S
C722        F727   1.382   1_455  S
C722        F728   1.384       .  S
C729        C730   1.401       .  A
C729       C1478   1.409   1_554  A
C729        H736   1.083   1_655  S
C730        C731   1.415       .  A
C731        C738   1.507       .  S
C731       C1476   1.400   1_554  A
C732        C733   1.400       .  A
C732       C1475   1.403       .  A
C732        H737   1.083       .  S
C733        C734   1.424   1_655  A
C734        C735   1.520       .  S
C734       C1473   1.410       .  A
C735        F739   1.385       .  S
C735        F740   1.382       .  S
C735        F741   1.383       .  S
C738        F742   1.380       .  S
C738        F743   1.378       .  S
C738        F744   1.384       .  S
C745        C746   1.544       .  S
C745        C751   1.538   1_455  S
C745        C749   1.552   1_455  S
C745       C1442   1.560       .  S
C746        H753   1.080       .  S
C746        C747   1.365       .  D
C747        C748   1.539   1_455  S
C747       C1458   1.488       .  S
C748        C752   1.542       .  S
C748        C750   1.551       .  S
C748        H754   1.106       .  S
C749        H755   1.083       .  S
C749        C750   1.378       .  D
C750        C918   1.522       .  S
C751        H756   1.086   1_655  S
C751        C752   1.360       .  D
C752       C1474   1.487       .  S
C757        C758   1.527       .  S
C757        C763   1.531       .  S
C757        C761   1.560       .  S
C757       C1410   1.550       .  S
C758        H765   1.084       .  S
C758        C759   1.354       .  D
C759        C760   1.534       .  S
C759       C1394   1.475       .  S
C760        C764   1.534       .  S
C760        C762   1.545       .  S
C760        H766   1.088       .  S
C761        H767   1.076       .  S
C761        C762   1.377       .  D
C762        C840   1.510       .  S
C763        H768   1.086       .  S
C763        C764   1.371       .  D
C764       C1426   1.501       .  S
Zr769       O770   2.442       .  S
Zr769       O771   2.459       .  S
Zr769       O772   2.455       .  S
Zr769       O775   2.468       .  S
Zr769       O777   2.386       .  S
Zr769       O778   2.379       .  S
Zr769       O779   2.418       .  S
Zr769       O780   2.406       .  S
O770        H826   0.990       .  S
O770        H834   0.990       .  S
O771        C791   1.288       .  A
O772        C793   1.289       .  A
O773       Zr783   2.405       .  S
O773        C792   1.278       .  A
O774       Zr782   2.407       .  S
O774        C793   1.278       .  A
O775        C792   1.290       .  A
O776       Zr784   2.410       .  S
O776        C791   1.278       .  A
O777       Zr782   2.396       .  S
O777       Zr784   2.373       .  S
O778       Zr783   2.393       .  S
O778       Zr784   2.386       .  S
O778        H813   0.966       .  S
O779       Zr782   2.403       .  S
O779       Zr799   2.396       .  S
O779        H816   0.965       .  S
O780       Zr783   2.385       .  S
O780       Zr799   2.399       .  S
Zr781       O806   2.435       .  S
Zr781       O800   2.436       .  S
Zr781       O808   2.443       .  S
Zr781       O796   2.423       .  S
Zr781       O787   2.391       .  S
Zr781       O788   2.407       .  S
Zr781       O789   2.378       .  S
Zr781       O790   2.382       .  S
Zr782       O801   2.438       .  S
Zr782       O794   2.434       .  S
Zr782       O795   2.418       .  S
Zr782       O788   2.389       .  S
Zr782       O789   2.387       .  S
Zr783       O785   2.435       .  S
Zr783       O807   2.439       .  S
Zr783       O809   2.413       .  S
Zr783       O787   2.384       .  S
Zr783       O790   2.378       .  S
Zr784       O810   2.436       .  S
Zr784       O811   2.435       .  S
Zr784       O786   2.438       .  S
Zr784       O787   2.390       .  S
Zr784       O788   2.390       .  S
O785        H822   0.990       .  S
O786        H817   0.990       .  S
O786        H831   0.990       .  S
O788        H814   0.966       .  S
O789       Zr799   2.372       .  S
O790       Zr799   2.381       .  S
O790        H815   0.966       .  S
C791       C1362   1.479       .  S
C792       C1317   1.479       .  S
O794        H830   0.990       .  S
O795        C797   1.282       .  A
O796        C797   1.279       .  A
C797       C1378   1.468       .  S
O798       Zr799   2.440       .  S
O798        H827   0.990       .  S
Zr799       O802   2.438       .  S
Zr799       O803   2.438       .  S
Zr799       O804   2.433       .  S
O800        C805   1.283       .  A
O801        H818   0.990       .  S
O801        H833   0.990       .  S
O802        H819   0.990       .  S
O803        H823   0.990       .  S
O803        H832   0.990       .  S
O804        C805   1.286       .  A
C805       C1330   1.500       .  S
O806        H825   0.990       .  S
O806        H829   0.990       .  S
O807        H821   0.990       .  S
O807        H828   0.990       .  S
O808        C812   1.284       .  A
O809        C812   1.284       .  A
O810        H820   0.990       .  S
O811        H824   0.990       .  S
C812       C1429   1.498       .  S
C835        C836   1.535       .  S
C835        C841   1.544       .  S
C835        C839   1.533       .  S
C835       C1282   1.545       .  S
C836        H843   1.085       .  S
C836        C837   1.357       .  D
C837        C838   1.542       .  S
C837       C1346   1.486       .  S
C838        C842   1.546       .  S
C838        C840   1.553       .  S
C838        H844   1.107       .  S
C839        H845   1.080       .  S
C839        C840   1.374       .  D
C841        H846   1.084       .  S
C841        C842   1.368       .  D
C842       C1298   1.485       .  S
Zr847       O848   2.439       .  S
Zr847       O849   2.461       .  S
Zr847       O850   2.440       .  S
Zr847       O853   2.460       .  S
Zr847       O855   2.387       .  S
Zr847       O856   2.378       .  S
Zr847       O857   2.419       .  S
Zr847       O858   2.403       .  S
O848        H904   0.990       .  S
O848        H912   0.990       .  S
O849        C869   1.286       .  A
O850        C871   1.287       .  A
O851       Zr861   2.400       .  S
O851        C870   1.279       .  A
O852       Zr860   2.438       .  S
O852        C871   1.283       .  A
O853        C870   1.289       .  A
O854       Zr862   2.412       .  S
O854        C869   1.282       .  A
O855       Zr860   2.407       .  S
O855       Zr862   2.377       .  S
O856       Zr861   2.390       .  S
O856       Zr862   2.377       .  S
O856        H891   0.966       .  S
O857       Zr860   2.407       .  S
O857       Zr877   2.392       .  S
O857        H894   0.965       .  S
O858       Zr861   2.380       .  S
O858       Zr877   2.393       .  S
Zr859       O884   2.432       .  S
Zr859       O878   2.437       .  S
Zr859       O886   2.453       .  S
Zr859       O874   2.467       .  S
Zr859       O865   2.394       .  S
Zr859       O866   2.409       .  S
Zr859       O867   2.380       .  S
Zr859       O868   2.382       .  S
Zr860       O879   2.438       .  S
Zr860       O872   2.434       .  S
Zr860       O873   2.446       .  S
Zr860       O866   2.404       .  S
Zr860       O867   2.391       .  S
Zr861       O863   2.434   1_655  S
Zr861       O885   2.439       .  S
Zr861       O887   2.395       .  S
Zr861       O865   2.388       .  S
Zr861       O868   2.391       .  S
Zr862       O888   2.434       .  S
Zr862       O889   2.435       .  S
Zr862       O864   2.437       .  S
Zr862       O865   2.389       .  S
Zr862       O866   2.384       .  S
O863        H900   0.990       .  S
O864        H895   0.990       .  S
O864        H909   0.990       .  S
O866        H892   0.965       .  S
O867       Zr877   2.377       .  S
O868       Zr877   2.381       .  S
O868        H893   0.966   1_655  S
C869       C2773   1.509       .  S
C870       C2725   1.487   1_655  S
C871       C1269   1.500       .  S
O872        H908   0.990       .  S
O873        C875   1.289       .  A
O874        C875   1.290       .  A
C875       C1301   1.517       .  S
O876       Zr877   2.436   1_455  S
O876        H905   0.990       .  S
Zr877       O880   2.435       .  S
Zr877       O881   2.439   1_655  S
Zr877       O882   2.421   1_655  S
O878        C883   1.286   1_655  A
O879        H896   0.990       .  S
O879        H911   0.990       .  S
O880        H897   0.990   1_655  S
O881        H901   0.990       .  S
O881        H910   0.989       .  S
O882        C883   1.279       .  A
C883       C1250   1.495       .  S
O884        H903   0.990       .  S
O884        H907   0.989       .  S
O885        H899   0.990       .  S
O885        H906   0.990       .  S
O886        C890   1.289       .  A
O887        C890   1.275       .  A
O888        H898   0.990       .  S
O889        H902   0.990       .  S
C890       C1477   1.479       .  S
C913        C914   1.531       .  S
C913        C919   1.529       .  S
C913        C917   1.557       .  S
C913       C1365   1.546       .  S
C914        H921   1.087       .  S
C914        C915   1.358       .  D
C915        C916   1.534       .  S
C915       C1266   1.481       .  S
C916        C920   1.552       .  S
C916        C918   1.560       .  S
C916        H922   1.102       .  S
C917        H923   1.076       .  S
C917        C918   1.381       .  D
C919        H924   1.086       .  S
C919        C920   1.363       .  D
C920       C1381   1.505       .  S
C925        C926   1.532       .  S
C925        C931   1.536       .  S
C925        C929   1.563       .  S
C925       C1314   1.552       .  S
C926        H933   1.080       .  S
C926        C927   1.358       .  D
C927        C928   1.536       .  S
C927       C1333   1.483       .  S
C928        C932   1.540       .  S
C928        C930   1.554       .  S
C928        H934   1.104       .  S
C929        H935   1.079       .  S
C929        C930   1.382       .  D
C930       C1098   1.513       .  S
C931        H936   1.087       .  S
C931        C932   1.356       .  D
C932       C1221   1.492       .  S
C937        C938   1.546       .  S
C937        C943   1.542       .  S
C937        C941   1.527       .  S
C937       C1234   1.546       .  S
C938        H945   1.080       .  S
C938        C939   1.358       .  D
C939        C940   1.547       .  S
C939       C1253   1.490       .  S
C940        C944   1.545       .  S
C940        C942   1.564       .  S
C940        H946   1.108       .  S
C941        H947   1.074       .  S
C941        C942   1.368       .  D
C942       C1020   1.506       .  S
C943        H948   1.087       .  S
C943        C944   1.360       .  D
C944       C1202   1.497       .  S
Zr949       O950   2.441       .  S
Zr949       O951   2.470       .  S
Zr949       O952   2.486       .  S
Zr949       O955   2.462       .  S
Zr949       O957   2.382       .  S
Zr949       O958   2.393       .  S
Zr949       O959   2.415       .  S
Zr949       O960   2.421       .  S
O950       H1006   0.990       .  S
O950       H1014   0.990       .  S
O951        C971   1.291       .  A
O952        C973   1.295       .  A
O953       Zr963   2.402       .  S
O953        C972   1.281       .  A
O954       Zr962   2.425       .  S
O954        C973   1.281       .  A
O955        C972   1.288       .  A
O956       Zr964   2.406       .  S
O956        C971   1.278       .  A
O957       Zr962   2.394       .  S
O957       Zr964   2.380       .  S
O958       Zr963   2.392       .  S
O958       Zr964   2.376       .  S
O958        H993   0.966       .  S
O959       Zr962   2.400       .  S
O959       Zr979   2.406       .  S
O959        H996   0.966       .  S
O960       Zr963   2.395       .  S
O960       Zr979   2.404       .  S
Zr961       O986   2.439       .  S
Zr961       O980   2.435       .  S
Zr961       O988   2.460       .  S
Zr961       O976   2.441       .  S
Zr961       O967   2.395       .  S
Zr961       O968   2.410       .  S
Zr961       O969   2.384       .  S
Zr961       O970   2.380       .  S
Zr962       O981   2.437       .  S
Zr962       O974   2.435       .  S
Zr962       O975   2.406       .  S
Zr962       O968   2.404       .  S
Zr962       O969   2.396       .  S
Zr963       O965   2.436       .  S
Zr963       O987   2.438       .  S
Zr963       O989   2.420       .  S
Zr963       O967   2.383       .  S
Zr963       O970   2.388       .  S
Zr964       O990   2.435       .  S
Zr964       O991   2.435       .  S
Zr964       O966   2.436       .  S
Zr964       O967   2.387       .  S
Zr964       O968   2.384       .  S
O965       H1002   0.990       .  S
O966        H997   0.990       .  S
O966       H1011   0.990       .  S
O968        H994   0.965       .  S
O969       Zr979   2.370       .  S
O970       Zr979   2.381       .  S
O970        H995   0.966       .  S
C971       C1170   1.499       .  S
C972       C1445   1.490       .  S
C973       C1157   1.512       .  S
O974       H1010   0.990       .  S
O975        C977   1.279       .  A
O976        C977   1.283       .  A
C977       C1186   1.464       .  S
O978       Zr979   2.439       .  S
O978       H1007   0.991       .  S
Zr979       O982   2.438       .  S
Zr979       O983   2.440       .  S
Zr979       O984   2.432       .  S
O980        C985   1.282       .  A
O981        H998   0.990       .  S
O981       H1013   0.990       .  S
O982        H999   0.990       .  S
O983       H1003   0.990       .  S
O983       H1012   0.990       .  S
O984        C985   1.284       .  A
C985       C1461   1.491       .  S
O986       H1005   0.990       .  S
O986       H1009   0.990       .  S
O987       H1001   0.990       .  S
O987       H1008   0.990       .  S
O988        C992   1.288       .  A
O989        C992   1.282       .  A
O990       H1000   0.990       .  S
O991       H1004   0.990       .  S
C992       C1205   1.487       .  S
C1015      C1016   1.546       .  S
C1015      C1021   1.541       .  S
C1015      C1019   1.545       .  S
C1015      C1122   1.552       .  S
C1016      H1023   1.086       .  S
C1016      C1017   1.363       .  D
C1017      C1018   1.540       .  S
C1017      C1154   1.504       .  S
C1018      C1022   1.541       .  S
C1018      C1020   1.560       .  S
C1018      H1024   1.105       .  S
C1019      H1025   1.077       .  S
C1019      C1020   1.372       .  D
C1021      H1026   1.084       .  S
C1021      C1022   1.357       .  D
C1022      C1138   1.484       .  S
Zr1027     O1028   2.442       .  S
Zr1027     O1029   2.448       .  S
Zr1027     O1030   2.456       .  S
Zr1027     O1033   2.450       .  S
Zr1027     O1035   2.388       .  S
Zr1027     O1036   2.389       .  S
Zr1027     O1037   2.411       .  S
Zr1027     O1038   2.404       .  S
O1028      H1084   0.990       .  S
O1028      H1092   0.990       .  S
O1029      C1049   1.285       .  A
O1030      C1051   1.287       .  A
O1031     Zr1041   2.397       .  S
O1031      C1050   1.278       .  A
O1032     Zr1040   2.440       .  S
O1032      C1051   1.285       .  A
O1033      C1050   1.286       .  A
O1034     Zr1042   2.401       .  S
O1034      C1049   1.279       .  A
O1035     Zr1040   2.403       .  S
O1035     Zr1042   2.383       .  S
O1036     Zr1041   2.395       .  S
O1036     Zr1042   2.375       .  S
O1036      H1071   0.965       .  S
O1037     Zr1040   2.409       .  S
O1037     Zr1057   2.382       .  S
O1037      H1074   0.964       .  S
O1038     Zr1041   2.390       .  S
O1038     Zr1057   2.382       .  S
Zr1039     O1064   2.442       .  S
Zr1039     O2546   2.418       .  S
Zr1039     O1066   2.450       .  S
Zr1039     O2542   2.432       .  S
Zr1039     O1045   2.387       .  S
Zr1039     O1046   2.402       .  S
Zr1039     O1047   2.384       .  S
Zr1039     O1048   2.379       .  S
Zr1040     O1059   2.435       .  S
Zr1040     O1052   2.435       .  S
Zr1040     O1053   2.453       .  S
Zr1040     O1046   2.399       .  S
Zr1040     O1047   2.394       .  S
Zr1041     O1043   2.436       .  S
Zr1041     O1065   2.438       .  S
Zr1041     O1067   2.427       .  S
Zr1041     O1045   2.385       .  S
Zr1041     O1048   2.373       .  S
Zr1042     O1068   2.436       .  S
Zr1042     O1069   2.435       .  S
Zr1042     O1044   2.437       .  S
Zr1042     O1045   2.388       .  S
Zr1042     O1046   2.380       .  S
O1043      H1080   0.990       .  S
O1044      H1075   0.990       .  S
O1044      H1089   0.990       .  S
O1046      H1072   0.965       .  S
O1047     Zr1057   2.386       .  S
O1048     Zr1057   2.381       .  S
O1048      H1073   0.966       .  S
C1049      C1125   1.478       .  S
C1050      C1413   1.468       .  S
C1051      C1106   1.479   1_556  S
O1052      H1088   0.990       .  S
O1053      C2543   1.287       .  A
O1054     Zr2527   2.436       .  S
O1054      C1055   1.286   1_565  A
C1055      O2541   1.286   1_545  A
C1055      C1141   1.491       .  S
O1056     Zr1057   2.442       .  S
O1056      H1085   0.990       .  S
Zr1057     O1060   2.437       .  S
Zr1057     O1061   2.439       .  S
Zr1057     O1062   2.398       .  S
O1058     Zr2527   2.417       .  S
O1058      C1063   1.282   1_565  A
O1059      H1076   0.990       .  S
O1059      H1091   0.990       .  S
O1060      H1077   0.990       .  S
O1061      H1081   0.990       .  S
O1061      H1090   0.990       .  S
O1062      C2551   1.274       .  A
C1063      O2550   1.276   1_545  A
C1063      C1397   1.491       .  S
O1064      H1083   0.991       .  S
O1064      H1087   0.990       .  S
O1065      H1079   0.990       .  S
O1065      H1086   0.990       .  S
O1066      C1070   1.288       .  A
O1067      C1070   1.282       .  A
O1068      H1078   0.990       .  S
O1069      H1082   0.990       .  S
C1070      C1218   1.492       .  S
C1093      C1094   1.542       .  S
C1093      C1099   1.537       .  S
C1093      C1097   1.528       .  S
C1093      C1173   1.549       .  S
C1094      H1101   1.084       .  S
C1094      C1095   1.364       .  D
C1095      C1096   1.541       .  S
C1095      C1109   1.490       .  S
C1096      C1100   1.546       .  S
C1096      C1098   1.558       .  S
C1096      H1102   1.102       .  S
C1097      H1103   1.080       .  S
C1097      C1098   1.371       .  D
C1099      H1104   1.077       .  S
C1099      C1100   1.371       .  D
C1100      C1189   1.505       .  S
C1105      C1110   1.407       .  A
C1107      C1114   1.518       .  S
C1107      C1108   1.409       .  A
C1108      C1109   1.403       .  A
C1108      H1113   1.083       .  S
C1109      C1110   1.425       .  A
C1110      C1111   1.519       .  S
C1111      F1115   1.385       .  S
C1111      F1116   1.379       .  S
C1111      F1117   1.380       .  S
C1114      F1118   1.383       .  S
C1114      F1120   1.385       .  S
C1121      C1122   1.420       .  A
C1121      C1126   1.404       .  A
C1121      H1128   1.073       .  S
C1122      C1123   1.436       .  A
C1123      C1130   1.522       .  S
C1123      C1124   1.409       .  A
C1124      C1125   1.397       .  A
C1124      H1129   1.084       .  S
C1125      C1126   1.408       .  A
C1126      C1127   1.521       .  S
C1127      F1131   1.385       .  S
C1127      F1132   1.382       .  S
C1127      F1133   1.381       .  S
C1130      F1134   1.381       .  S
C1130      F1135   1.373       .  S
C1130      F1136   1.385       .  S
C1137      C1138   1.403       .  A
C1137      C1142   1.414       .  A
C1137      H1144   1.083       .  S
C1138      C1139   1.420       .  A
C1139      C1146   1.521       .  S
C1139      C1140   1.402       .  A
C1140      C1141   1.404       .  A
C1140      H1145   1.085       .  S
C1141      C1142   1.423       .  A
C1142      C1143   1.518       .  S
C1143      F1147   1.383       .  S
C1143      F2636   1.383       .  S
C1143      F2637   1.383   1_545  S
C1146      F1150   1.383       .  S
C1146      F1151   1.380       .  S
C1146      F1152   1.384       .  S
F1148      C2631   1.382       .  S
F1149      C2631   1.383       .  S
C1153      C1154   1.401       .  A
C1153      C1158   1.415       .  A
C1153      H1160   1.082       .  S
C1154      C1155   1.420       .  A
C1155      C1162   1.514       .  S
C1155      C1156   1.413       .  A
C1156      C1157   1.407       .  A
C1156      H1161   1.082       .  S
C1157      C1158   1.432       .  A
C1158      C1159   1.521       .  S
C1159      F1163   1.385       .  S
C1159      F1164   1.383       .  S
C1159      F1165   1.382       .  S
C1162      F1166   1.380       .  S
C1162      F1167   1.382       .  S
C1162      F1168   1.385       .  S
C1169      C1170   1.405       .  A
C1169      C1174   1.413       .  A
C1169      H1176   1.084       .  S
C1170      C1171   1.424       .  A
C1171      C1178   1.518       .  S
C1171      C1172   1.405       .  A
C1172      C1173   1.407       .  A
C1172      H1177   1.084       .  S
C1173      C1174   1.429       .  A
C1174      C1175   1.517       .  S
C1175      F1179   1.384       .  S
C1175      F1180   1.383       .  S
C1175      F1181   1.383       .  S
C1178      F1182   1.382       .  S
C1178      F1183   1.384       .  S
C1178      F1184   1.385       .  S
C1185      C1186   1.395       .  A
C1185      C2678   1.403   1_545  A
C1185      H1192   1.085       .  S
C1186      C2675   1.406   1_545  A
C1187      C1194   1.520       .  S
C1187      C2674   1.410       .  A
C1187      C1188   1.405       .  A
C1188      C1189   1.414       .  A
C1188      H1193   1.080       .  S
C1189      C1190   1.426       .  A
C1190      C1191   1.515       .  S
C1190      C2673   1.404       .  A
C1191      F2683   1.386       .  S
C1191      F1196   1.382       .  S
C1191      F1197   1.373       .  S
C1194      F1198   1.382       .  S
C1194      F1199   1.383       .  S
C1194      F1200   1.386       .  S
F1195      C2679   1.385   1_545  S
C1201      C1202   1.402       .  A
C1201      H1208   1.083       .  S
C1202      C1203   1.424       .  A
C1203      C1210   1.512       .  S
C1204      C1205   1.400       .  A
C1204      H1209   1.083       .  S
C1205      C1206   1.418       .  A
C1206      C1207   1.516       .  S
C1207      F1212   1.380       .  S
C1207      F1213   1.383       .  S
C1210      F1214   1.381       .  S
C1210      F1215   1.379       .  S
C1210      F1216   1.386       .  S
C1217      C1218   1.404       .  A
C1217      C1222   1.409       .  A
C1217      H1224   1.083       .  S
C1218      C1219   1.423       .  A
C1219      C1226   1.518       .  S
C1219      C1220   1.412       .  A
C1220      C1221   1.402       .  A
C1220      H1225   1.083       .  S
C1221      C1222   1.416       .  A
C1222      C1223   1.511       .  S
C1223      F1227   1.384       .  S
C1223      F1228   1.380       .  S
C1223      F1229   1.382       .  S
C1226      F1230   1.382       .  S
C1226      F1231   1.384       .  S
C1226      F1232   1.385       .  S
C1233      C1234   1.413       .  A
C1233      C1238   1.399       .  A
C1233      H1240   1.067       .  S
C1234      C1235   1.437       .  A
C1235      C1242   1.530       .  S
C1235      C1236   1.410       .  A
C1236      C1237   1.401       .  A
C1236      H2729   1.083   1_545  S
C1237      C2358   1.483   1_445  S
C1237      C1238   1.408       .  A
C1238      C1239   1.514   1_455  S
C1239      F1243   1.385       .  S
C1239      F1244   1.384       .  S
C1239      F1245   1.382       .  S
H1241      C2724   1.083       .  S
C1242      F1246   1.379       .  S
C1242      F1247   1.381       .  S
C1242      F2736   1.385       .  S
F1248      C2730   1.386       .  S
C1249      C1250   1.400       .  A
C1249      C1254   1.399       .  A
C1249      H1256   1.083   1_455  S
C1250      C1251   1.423       .  A
C1251      C1258   1.518       .  S
C1251      C1252   1.415       .  A
C1252      C1253   1.405       .  A
C1252      H1257   1.080       .  S
C1253      C1254   1.426       .  A
C1254      C1255   1.524   1_455  S
C1255      F1259   1.384       .  S
C1255      F1260   1.374   1_655  S
C1255      F1261   1.383       .  S
C1258      F1262   1.381       .  S
C1258      F1263   1.383       .  S
C1258      F1264   1.378       .  S
C1265      C1266   1.403       .  A
C1265      C1270   1.413       .  A
C1265      H1272   1.083       .  S
C1266      C1267   1.414       .  A
C1267      C1274   1.520       .  S
C1267      C1268   1.399       .  A
C1268      C1269   1.409       .  A
C1268      H1273   1.082       .  S
C1269      C1270   1.427       .  A
C1270      C1271   1.520       .  S
C1271      F1275   1.385       .  S
C1271      F1276   1.383       .  S
C1271      F1277   1.382       .  S
C1274      F1278   1.382       .  S
C1274      F1279   1.379       .  S
C1274      F1280   1.384       .  S
C1281      C1282   1.412       .  A
C1281      C1286   1.418       .  A
C1281      H1288   1.079       .  S
C1282      C1283   1.428       .  A
C1283      C1290   1.521       .  S
C1283      C1284   1.397       .  A
C1284      C1285   1.405       .  A
C1284      H2777   1.084   1_545  S
C1285      C2357   1.508   1_545  S
C1285      C1286   1.423       .  A
C1286      C1287   1.513       .  S
C1287      F1291   1.385       .  S
C1287      F1292   1.383       .  S
C1287      F1293   1.372       .  S
H1289      C2772   1.084       .  S
C1290      F1294   1.371       .  S
C1290      F1295   1.383       .  S
C1290      F2784   1.385       .  S
F1296      C2778   1.384       .  S
C1297      C1298   1.396       .  A
C1297      C1302   1.411       .  A
C1297      H1304   1.083       .  S
C1298      C1299   1.409       .  A
C1299      C1306   1.518       .  S
C1299      C1300   1.410       .  A
C1300      C1301   1.416       .  A
C1300      H1305   1.082       .  S
C1301      C1302   1.433       .  A
C1302      C1303   1.515       .  S
C1303      F1307   1.385       .  S
C1303      F1308   1.380       .  S
C1303      F1309   1.381       .  S
C1306      F1310   1.382       .  S
C1306      F1311   1.383       .  S
C1306      F1312   1.384       .  S
C1313      C2802   1.418       .  A
C1313      C1318   1.415   1_565  A
C1313      H1320   1.076       .  S
C1314      C2801   1.417       .  A
C1314      C1315   1.447       .  A
C1315      C1322   1.536       .  S
C1315      C2804   1.408       .  A
C1316      C2803   1.406   1_545  A
C1316      C1317   1.392       .  A
C1316      H1321   1.086       .  S
C1317      C1318   1.412       .  A
C1318      C1319   1.518       .  S
C1319      F1323   1.385       .  S
C1319      F1324   1.383       .  S
C1319      F1325   1.383       .  S
C1322      F1326   1.381       .  S
C1322      F1327   1.378       .  S
C1322      F1328   1.385       .  S
C1329      C1330   1.409       .  A
C1329      C1334   1.405       .  A
C1329      H1336   1.082       .  S
C1330      C1331   1.428       .  A
C1331      C1338   1.518       .  S
C1331      C1332   1.411       .  A
C1332      C1333   1.399       .  A
C1332      H1337   1.083       .  S
C1333      C1334   1.415       .  A
C1334      C1335   1.520       .  S
C1335      F1339   1.385       .  S
C1335      F1340   1.381       .  S
C1335      F1341   1.381       .  S
C1338      F1342   1.382       .  S
C1338      F1343   1.383       .  S
C1338      F1344   1.385       .  S
C1345      C1346   1.405       .  A
C1345      C1350   1.408       .  A
C1345      H1352   1.083       .  S
C1346      C1347   1.417       .  A
C1347      C1354   1.512       .  S
C1347      C1348   1.404       .  A
C1348      C1349   1.400       .  A
C1348      H1353   1.084       .  S
C1349      C1350   1.416       .  A
C1350      C1351   1.517       .  S
C1351      F1355   1.385       .  S
C1354      F1358   1.385       .  S
C1354      F1359   1.378       .  S
C1354      F1360   1.377       .  S
C1361      C1362   1.391       .  A
C1361      C2854   1.406   1_545  A
C1361      H1368   1.085       .  S
C1362      C1363   1.410       .  A
C1363      C1370   1.517       .  S
C1363      C1364   1.412   1_545  A
C1364      C2853   1.416       .  A
C1364      H2857   1.075       .  S
C1365      C2852   1.415       .  A
C1365      C1366   1.444       .  A
C1366      C1367   1.533       .  S
C1366      C2849   1.406       .  A
C1367      F1371   1.385       .  S
C1367      F1372   1.373       .  S
C1367      F1373   1.383       .  S
H1369      C2852   1.074       .  S
C1370      F1374   1.382       .  S
C1370      F1375   1.383       .  S
C1370      F1376   1.385       .  S
C1377      C1378   1.393       .  A
C1377      C1382   1.399       .  A
C1377      H1384   1.085       .  S
C1378      C1379   1.411       .  A
C1379      C1386   1.518       .  S
C1379      C1380   1.406       .  A
C1380      C1381   1.413       .  A
C1380      H1385   1.080       .  S
C1381      C1382   1.420       .  A
C1382      C1383   1.500       .  S
C1383      F1387   1.386       .  S
C1383      F1388   1.383       .  S
C1383      F1389   1.371       .  S
C1386      F1390   1.381       .  S
C1386      F1391   1.384       .  S
C1386      F1392   1.385       .  S
C1393      C1394   1.395       .  A
C1393      C1398   1.405       .  A
C1393      H1400   1.079       .  S
C1394      C1395   1.418       .  A
C1395      C1402   1.519       .  S
C1395      C1396   1.397       .  A
C1396      C1397   1.407       .  A
C1396      H1401   1.084       .  S
C1397      C1398   1.428       .  A
C1398      C1399   1.521       .  S
C1399      F1403   1.380       .  S
C1399      F2892   1.383   1_545  S
C1399      F1405   1.383       .  S
C1402      F1406   1.377       .  S
C1402      F1407   1.383       .  S
C1402      F1408   1.384       .  S
F1404      C2887   1.382       .  S
C1409      C1410   1.420       .  A
C1409      C1414   1.411       .  A
C1409      H1416   1.072       .  S
C1410      C1411   1.446       .  A
C1411      C1418   1.536       .  S
C1411      C1412   1.398       .  A
C1412      C1413   1.388       .  A
C1412      H1417   1.081       .  S
C1413      C1414   1.404       .  A
C1414      C1415   1.516       .  S
C1415      F1419   1.385       .  S
C1415      F1420   1.383       .  S
C1415      F1421   1.383       .  S
C1418      F1422   1.375       .  S
C1418      F1423   1.376       .  S
C1418      F1424   1.386       .  S
C1425      C1426   1.407       .  A
C1425      C1430   1.403       .  A
C1425      H1432   1.082       .  S
C1426      C1427   1.424       .  A
C1427      C1434   1.521       .  S
C1427      C1428   1.402       .  A
C1428      C1429   1.409       .  A
C1428      H1433   1.081       .  S
C1429      C1430   1.422       .  A
C1430      C1431   1.517       .  S
C1431      F1435   1.386       .  S
C1431      F1436   1.380       .  S
C1431      F1437   1.379       .  S
C1434      F1438   1.372       .  S
C1434      F1439   1.382       .  S
C1434      F1440   1.385       .  S
C1441      C1442   1.423       .  A
C1441      C1446   1.418       .  A
C1441      H1448   1.076       .  S
C1442      C1443   1.435       .  A
C1443      C1450   1.515   1_455  S
C1443      C1444   1.398       .  A
C1444      C1445   1.396       .  A
C1444      H1449   1.086       .  S
C1445      C1446   1.412       .  A
C1446      C1447   1.517       .  S
C1447      F1451   1.384       .  S
C1447      F1452   1.384       .  S
C1447      F1453   1.382       .  S
C1450      F1454   1.384       .  S
C1450      F1455   1.358       .  S
C1450      F1456   1.385       .  S
C1457      C1458   1.405       .  A
C1457      C2950   1.411       .  A
C1457      H1464   1.083       .  S
C1458      C1459   1.420       .  A
C1459      C1466   1.521       .  S
C1459      C1460   1.403       .  A
C1460      C2949   1.402       .  A
C1460      H1465   1.084       .  S
C1461      C2948   1.404   1_545  A
C1461      C1462   1.423   1_545  A
C1462      C1463   1.518   1_565  S
C1462      C2945   1.413       .  A
C1463      F1467   1.385   1_545  S
C1463      F1468   1.382       .  S
C1463      F1469   1.383       .  S
C1466      F1470   1.381       .  S
C1466      F1471   1.380   1_455  S
C1466      F1472   1.384       .  S
C1473      C1474   1.401   1_455  A
C1473      H1480   1.083       .  S
C1474      C1475   1.415       .  A
C1475      C1482   1.509       .  S
C1476      C1477   1.398       .  A
C1476      H1481   1.083       .  S
C1477      C1478   1.422       .  A
C1478      C1479   1.519   1_655  S
C1479      F1483   1.385       .  S
C1479      F1484   1.382       .  S
C1479      F1485   1.383       .  S
C1482      F1486   1.382       .  S
C1482      F1487   1.376       .  S
C1482      F1488   1.384       .  S
C1489      C1490   1.545   1_655  S
C1489      C1495   1.541       .  S
C1489      C1493   1.557       .  S
C1489      C2186   1.566   1_655  S
C1490      H1497   1.081       .  S
C1490      C1491   1.363       .  D
C1491      C1492   1.539   1_455  S
C1491      C2202   1.484       .  S
C1492      C1496   1.543       .  S
C1492      C1494   1.548       .  S
C1492      H1498   1.105       .  S
C1493      H1499   1.082       .  S
C1493      C1494   1.382       .  D
C1494      C1662   1.523       .  S
C1495      H1500   1.086   1_655  S
C1495      C1496   1.362       .  D
C1496      C2218   1.493       .  S
C1501      C1502   1.526       .  S
C1501      C1507   1.533       .  S
C1501      C1505   1.560       .  S
C1501      C2154   1.549       .  S
C1502      H1509   1.084       .  S
C1502      C1503   1.354       .  D
C1503      C1504   1.530       .  S
C1503      C2138   1.469       .  S
C1504      C1508   1.531       .  S
C1504      C1506   1.542       .  S
C1504      H1510   1.089       .  S
C1505      H1511   1.076       .  S
C1505      C1506   1.379       .  D
C1506      C1584   1.509       .  S
C1507      H1512   1.086       .  S
C1507      C1508   1.370       .  D
C1508      C2170   1.496       .  S
Zr1513     O1514   2.442       .  S
Zr1513     O1515   2.465       .  S
Zr1513     O1516   2.457       .  S
Zr1513     O1519   2.459       .  S
Zr1513     O1521   2.386       .  S
Zr1513     O1522   2.380       .  S
Zr1513     O1523   2.416       .  S
Zr1513     O1524   2.416       .  S
O1514      H1570   0.990       .  S
O1514      H1578   0.990       .  S
O1515      C1535   1.290       .  A
O1516      C1537   1.288       .  A
O1517     Zr1527   2.420       .  S
O1517      C1536   1.280       .  A
O1518     Zr1526   2.400       .  S
O1518      C1537   1.276       .  A
O1519      C1536   1.288       .  A
O1520     Zr1528   2.406       .  S
O1520      C1535   1.278       .  A
O1521     Zr1526   2.395       .  S
O1521     Zr1528   2.378       .  S
O1522     Zr1527   2.389       .  S
O1522     Zr1528   2.384       .  S
O1522      H1557   0.966       .  S
O1523     Zr1526   2.402       .  S
O1523     Zr1543   2.402       .  S
O1523      H1560   0.966       .  S
O1524     Zr1527   2.385       .  S
O1524     Zr1543   2.406       .  S
Zr1525     O1550   2.438       .  S
Zr1525     O1544   2.431       .  S
Zr1525     O1552   2.436       .  S
Zr1525     O1540   2.427       .  S
Zr1525     O1531   2.391       .  S
Zr1525     O1532   2.406       .  S
Zr1525     O1533   2.379       .  S
Zr1525     O1534   2.390       .  S
Zr1526     O1545   2.437       .  S
Zr1526     O1538   2.436       .  S
Zr1526     O1539   2.413       .  S
Zr1526     O1532   2.391       .  S
Zr1526     O1533   2.390       .  S
Zr1527     O1529   2.437       .  S
Zr1527     O1551   2.439       .  S
Zr1527     O1553   2.412       .  S
Zr1527     O1531   2.382       .  S
Zr1527     O1534   2.385       .  S
Zr1528     O1554   2.435       .  S
Zr1528     O1555   2.436       .  S
Zr1528     O1530   2.435       .  S
Zr1528     O1531   2.378       .  S
Zr1528     O1532   2.389       .  S
O1529      H1566   0.990       .  S
O1530      H1561   0.990       .  S
O1530      H1575   0.990       .  S
O1532      H1558   0.966       .  S
O1533     Zr1543   2.372       .  S
O1534     Zr1543   2.378       .  S
O1534      H1559   0.966       .  S
C1535      C2106   1.482       .  S
C1536      C2061   1.481       .  S
C1537      C2837   1.472   1_554  S
O1538      H1574   0.990       .  S
O1539      C1541   1.281       .  A
O1540      C1541   1.279       .  A
C1541      C2122   1.467       .  S
O1542     Zr1543   2.440       .  S
O1542      H1571   0.991       .  S
Zr1543     O1546   2.438       .  S
Zr1543     O1547   2.440       .  S
Zr1543     O1548   2.433       .  S
O1544      C1549   1.281       .  A
O1545      H1562   0.990       .  S
O1545      H1577   0.990       .  S
O1546      H1563   0.990       .  S
O1547      H1567   0.990       .  S
O1547      H1576   0.990       .  S
O1548      C1549   1.285       .  A
C1549      C2074   1.502       .  S
O1550      H1569   0.990       .  S
O1550      H1573   0.990       .  S
O1551      H1565   0.990       .  S
O1551      H1572   0.990       .  S
O1552      C1556   1.282       .  A
O1553      C1556   1.284       .  A
O1554      H1564   0.990       .  S
O1555      H1568   0.990       .  S
C1556      C2173   1.497       .  S
C1579      C1580   1.540       .  S
C1579      C1585   1.543       .  S
C1579      C1583   1.537       .  S
C1579      C2026   1.551       .  S
C1580      H1587   1.086       .  S
C1580      C1581   1.360       .  D
C1581      C1582   1.543       .  S
C1581      C2090   1.491       .  S
C1582      C1586   1.543       .  S
C1582      C1584   1.549       .  S
C1582      H1588   1.107       .  S
C1583      H1589   1.080       .  S
C1583      C1584   1.376       .  D
C1585      H1590   1.083       .  S
C1585      C1586   1.366       .  D
C1586      C2042   1.482       .  S
Zr1591     O1592   2.439       .  S
Zr1591     O1593   2.468       .  S
Zr1591     O1594   2.434       .  S
Zr1591     O1597   2.461       .  S
Zr1591     O1599   2.389       .  S
Zr1591     O1600   2.376       .  S
Zr1591     O1601   2.420       .  S
Zr1591     O1602   2.401       .  S
O1592      H1648   0.990       .  S
O1592      H1656   0.990       .  S
O1593      C1613   1.287       .  A
O1594      C1615   1.286       .  A
O1595     Zr1605   2.392   1_455  S
O1595      C1614   1.278   1_455  A
O1596     Zr1604   2.449       .  S
O1596      C1615   1.286       .  A
O1597      C1614   1.289       .  A
O1598     Zr1606   2.408       .  S
O1598      C1613   1.281       .  A
O1599     Zr1604   2.406       .  S
O1599     Zr1606   2.373       .  S
O1600     Zr1605   2.396       .  S
O1600     Zr1606   2.379       .  S
O1600      H1635   0.966       .  S
O1601     Zr1604   2.406       .  S
O1601     Zr1621   2.391       .  S
O1601      H1638   0.965       .  S
O1602     Zr1605   2.385       .  S
O1602     Zr1621   2.395       .  S
Zr1603     O1628   2.431       .  S
Zr1603     O1622   2.439       .  S
Zr1603     O1630   2.458       .  S
Zr1603     O1618   2.446       .  S
Zr1603     O1609   2.385       .  S
Zr1603     O1610   2.414       .  S
Zr1603     O1611   2.385       .  S
Zr1603     O1612   2.379       .  S
Zr1604     O1623   2.437       .  S
Zr1604     O1616   2.435       .  S
Zr1604     O1617   2.457       .  S
Zr1604     O1610   2.403       .  S
Zr1604     O1611   2.392       .  S
Zr1605     O1607   2.435   1_655  S
Zr1605     O1629   2.438       .  S
Zr1605     O1631   2.406       .  S
Zr1605     O1609   2.379       .  S
Zr1605     O1612   2.389       .  S
Zr1606     O1632   2.434       .  S
Zr1606     O1633   2.434       .  S
Zr1606     O1608   2.438       .  S
Zr1606     O1609   2.385       .  S
Zr1606     O1610   2.386       .  S
O1607      H1644   0.990       .  S
O1608      H1639   0.990       .  S
O1608      H1653   0.990       .  S
O1610      H1636   0.965       .  S
O1611     Zr1621   2.377       .  S
O1612     Zr1621   2.387       .  S
O1612      H1637   0.966   1_655  S
C1615      C2013   1.502       .  S
O1616      H1652   0.990       .  S
O1617      C1619   1.292       .  A
O1618      C1619   1.285       .  A
C1619      C2045   1.511       .  S
O1620     Zr1621   2.441   1_455  S
O1620      H1649   0.990       .  S
Zr1621     O1624   2.439       .  S
Zr1621     O1625   2.439   1_655  S
Zr1621     O1626   2.421   1_655  S
O1622      C1627   1.286   1_655  A
O1623      H1640   0.990       .  S
O1623      H1655   0.990       .  S
O1624      H1641   0.990       .  S
O1625      H1645   0.990       .  S
O1625      H1654   0.989       .  S
O1626      C1627   1.280       .  A
C1627      C1994   1.493       .  S
O1628      H1647   0.990       .  S
O1628      H1651   0.989       .  S
O1629      H1643   0.990       .  S
O1629      H1650   0.990       .  S
O1630      C1634   1.289       .  A
O1631      C1634   1.277       .  A
O1632      H1642   0.990       .  S
O1633      H1646   0.990       .  S
C1634      C2221   1.486       .  S
C1657      C1658   1.530       .  S
C1657      C1663   1.530       .  S
C1657      C1661   1.556       .  S
C1657      C2109   1.546       .  S
C1658      H1665   1.085       .  S
C1658      C1659   1.356       .  D
C1659      C1660   1.536       .  S
C1659      C2010   1.481       .  S
C1660      C1664   1.551       .  S
C1660      C1662   1.558       .  S
C1660      H1666   1.104       .  S
C1661      H1667   1.075       .  S
C1661      C1662   1.383       .  D
C1663      H1668   1.086       .  S
C1663      C1664   1.362       .  D
C1664      C2125   1.503       .  S
C1669      C1670   1.536       .  S
C1669      C1675   1.538       .  S
C1669      C1673   1.556       .  S
C1669      C2058   1.550       .  S
C1670      H1677   1.082       .  S
C1670      C1671   1.360       .  D
C1671      C1672   1.535       .  S
C1671      C2077   1.483       .  S
C1672      C1676   1.539       .  S
C1672      C1674   1.556       .  S
C1672      H1678   1.105       .  S
C1673      H1679   1.079       .  S
C1673      C1674   1.378       .  D
C1674      C1842   1.508       .  S
C1675      H1680   1.087       .  S
C1675      C1676   1.358       .  D
C1676      C1965   1.493       .  S
C1681      C1682   1.548       .  S
C1681      C1687   1.545       .  S
C1681      C1685   1.525       .  S
C1681      C1978   1.546       .  S
C1682      H1689   1.079       .  S
C1682      C1683   1.360       .  D
C1683      C1684   1.551       .  S
C1683      C1997   1.500       .  S
C1684      C1688   1.540       .  S
C1684      C1686   1.561       .  S
C1684      H1690   1.107       .  S
C1685      H1691   1.077       .  S
C1685      C1686   1.366       .  D
C1686      C1764   1.499       .  S
C1687      H1692   1.086       .  S
C1687      C1688   1.363       .  D
C1688      C1946   1.499       .  S
Zr1693     O1694   2.440       .  S
Zr1693     O1695   2.453       .  S
Zr1693     O1696   2.485       .  S
Zr1693     O1699   2.473       .  S
Zr1693     O1701   2.389       .  S
Zr1693     O1702   2.393       .  S
Zr1693     O1703   2.413       .  S
Zr1693     O1704   2.415       .  S
O1694      H1750   0.990       .  S
O1694      H1758   0.990       .  S
O1695      C1715   1.289       .  A
O1696      C1717   1.294       .  A
O1697     Zr1707   2.405       .  S
O1697      C1716   1.282       .  A
O1698     Zr1706   2.431       .  S
O1698      C1717   1.283       .  A
O1699      C1716   1.291       .  A
O1700     Zr1708   2.396       .  S
O1700      C1715   1.275       .  A
O1701     Zr1706   2.393       .  S
O1701     Zr1708   2.382       .  S
O1702     Zr1707   2.383       .  S
O1702     Zr1708   2.382       .  S
O1702      H1737   0.966       .  S
O1703     Zr1706   2.396       .  S
O1703     Zr1723   2.402       .  S
O1703      H1740   0.966       .  S
O1704     Zr1707   2.388       .  S
O1704     Zr1723   2.398       .  S
Zr1705     O1730   2.440       .  S
Zr1705     O1724   2.427       .  S
Zr1705     O1732   2.467       .  S
Zr1705     O1720   2.444       .  S
Zr1705     O1711   2.397       .  S
Zr1705     O1712   2.410       .  S
Zr1705     O1713   2.385       .  S
Zr1705     O1714   2.386       .  S
Zr1706     O1725   2.437       .  S
Zr1706     O1718   2.433       .  S
Zr1706     O1719   2.416       .  S
Zr1706     O1712   2.404       .  S
Zr1706     O1713   2.392       .  S
Zr1707     O1709   2.435       .  S
Zr1707     O1731   2.438       .  S
Zr1707     O1733   2.415       .  S
Zr1707     O1711   2.384       .  S
Zr1707     O1714   2.390       .  S
Zr1708     O1734   2.434       .  S
Zr1708     O1735   2.436       .  S
Zr1708     O1710   2.435       .  S
Zr1708     O1711   2.383       .  S
Zr1708     O1712   2.379       .  S
O1709      H1746   0.990       .  S
O1710      H1741   0.990       .  S
O1710      H1755   0.989       .  S
O1712      H1738   0.965       .  S
O1713     Zr1723   2.370       .  S
O1714     Zr1723   2.383       .  S
O1714      H1739   0.966       .  S
C1715      C1914   1.492       .  S
C1716      C2189   1.496       .  S
C1717      C1901   1.510       .  S
O1718      H1754   0.989       .  S
O1719      C1721   1.282       .  A
O1720      C1721   1.284       .  A
C1721      C1930   1.470       .  S
O1722     Zr1723   2.438       .  S
O1722      H1751   0.990       .  S
Zr1723     O1726   2.437       .  S
Zr1723     O1727   2.440       .  S
Zr1723     O1728   2.424       .  S
O1724      C1729   1.280       .  A
O1725      H1742   0.990       .  S
O1725      H1757   0.990       .  S
O1726      H1743   0.990       .  S
O1727      H1747   0.990       .  S
O1727      H1756   0.990       .  S
O1728      C1729   1.283       .  A
C1729      C2205   1.482       .  S
O1730      H1749   0.990       .  S
O1730      H1753   0.990       .  S
O1731      H1745   0.990       .  S
O1731      H1752   0.990       .  S
O1732      C1736   1.290       .  A
O1733      C1736   1.282       .  A
O1734      H1744   0.989       .  S
O1735      H1748   0.990       .  S
C1736      C1949   1.491       .  S
C1759      C1760   1.547       .  S
C1759      C1765   1.543       .  S
C1759      C1763   1.539       .  S
C1759      C1866   1.555       .  S
C1760      H1767   1.086       .  S
C1760      C1761   1.364       .  D
C1761      C1762   1.539       .  S
C1761      C1898   1.502       .  S
C1762      C1766   1.543       .  S
C1762      C1764   1.556       .  S
C1762      H1768   1.106       .  S
C1763      H1769   1.073       .  S
C1763      C1764   1.367       .  D
C1765      H1770   1.084       .  S
C1765      C1766   1.359       .  D
C1766      C1882   1.486       .  S
Zr1771     O1772   2.440       .  S
Zr1771     O1773   2.440       .  S
Zr1771     O1774   2.451       .  S
Zr1771     O1777   2.443       .  S
Zr1771     O1779   2.390       .  S
Zr1771     O1780   2.385       .  S
Zr1771     O1781   2.410       .  S
Zr1771     O1782   2.401       .  S
O1772      H1828   0.990       .  S
O1772      H1836   0.989       .  S
O1773      C1793   1.283       .  A
O1774      C1795   1.286       .  A
O1775     Zr1785   2.396       .  S
O1775      C1794   1.278       .  A
O1776     Zr1784   2.447       .  S
O1776      C1795   1.286       .  A
O1777      C1794   1.285       .  A
O1778     Zr1786   2.410       .  S
O1778      C1793   1.280       .  A
O1779     Zr1784   2.401       .  S
O1779     Zr1786   2.385       .  S
O1780     Zr1785   2.396       .  S
O1780     Zr1786   2.373       .  S
O1780      H1815   0.965       .  S
O1781     Zr1784   2.410       .  S
O1781     Zr1801   2.378       .  S
O1781      H1818   0.964       .  S
O1782     Zr1785   2.393       .  S
O1782     Zr1801   2.382       .  S
Zr1783     O1808   2.442       .  S
Zr1783     O1810   2.450       .  S
Zr1783     O1789   2.390       .  S
Zr1783     O1790   2.409       .  S
Zr1783     O1791   2.382       .  S
Zr1783     O1792   2.378       .  S
Zr1784     O1803   2.437       .  S
Zr1784     O1796   2.436       .  S
Zr1784     O1797   2.450       .  S
Zr1784     O1790   2.401       .  S
Zr1784     O1791   2.398       .  S
Zr1785     O1787   2.435       .  S
Zr1785     O1809   2.438       .  S
Zr1785     O1811   2.429       .  S
Zr1785     O1789   2.385       .  S
Zr1785     O1792   2.379       .  S
Zr1786     O1812   2.438       .  S
Zr1786     O1813   2.435       .  S
Zr1786     O1788   2.437       .  S
Zr1786     O1789   2.388       .  S
Zr1786     O1790   2.390       .  S
O1787      H1824   0.990       .  S
O1788      H1819   0.991       .  S
O1788      H1833   0.990       .  S
O1790      H1816   0.965       .  S
O1791     Zr1801   2.386       .  S
O1792     Zr1801   2.383       .  S
O1792      H1817   0.966       .  S
C1793      C1869   1.479       .  S
C1794      C2157   1.463       .  S
C1795      C1850   1.480       .  S
O1796      H1832   0.990       .  S
O1798      C1799   1.283       .  A
C1799      C1885   1.493       .  S
O1800     Zr1801   2.442       .  S
O1800      H1829   0.990       .  S
Zr1801     O1804   2.437       .  S
Zr1801     O1805   2.440       .  S
Zr1801     O1806   2.391       .  S
O1802      C1807   1.283       .  A
O1803      H1820   0.990       .  S
O1803      H1835   0.990       .  S
O1804      H1821   0.990       .  S
O1805      H1825   0.989       .  S
O1805      H1834   0.990       .  S
C1807      C2141   1.484       .  S
O1808      H1827   0.990       .  S
O1808      H1831   0.990   1_565  S
O1809      H1823   0.990       .  S
O1809      H1830   0.990       .  S
O1810      C1814   1.289       .  A
O1811      C1814   1.282       .  A
O1812      H1822   0.990       .  S
O1813      H1826   0.990       .  S
C1814      C1962   1.497       .  S
C1837      C1838   1.548       .  S
C1837      C1843   1.535       .  S
C1837      C1841   1.528       .  S
C1837      C1917   1.539       .  S
C1838      H1845   1.085       .  S
C1838      C1839   1.363       .  D
C1839      C1840   1.539       .  S
C1839      C1853   1.493       .  S
C1840      C1844   1.546       .  S
C1840      C1842   1.558       .  S
C1840      H1846   1.107       .  S
C1841      H1847   1.081       .  S
C1841      C1842   1.367       .  D
C1843      H1848   1.078       .  S
C1843      C1844   1.368       .  D
C1844      C1933   1.496       .  S
C1849      C2594   1.399       .  A
C1849      C1854   1.410       .  A
C1849      H2600   1.083   1_554  S
C1850      C2593   1.401       .  A
C1850      C2595   1.418       .  A
C1851      C1858   1.516       .  S
C1851      C2594   1.419       .  A
C1851      C1852   1.410       .  A
C1852      C1853   1.402       .  A
C1852      H1857   1.084       .  S
C1853      C1854   1.424       .  A
C1854      C1855   1.517       .  S
C1855      F1859   1.385       .  S
C1855      F1860   1.377       .  S
C1855      F1861   1.381       .  S
H1856      C2593   1.083       .  S
C1858      F1862   1.383   1_554  S
C1858      F2607   1.379   1_554  S
C1858      F1864   1.385       .  S
F1863      C2602   1.380       .  S
C1865      C1866   1.418       .  A
C1865      C1870   1.403       .  A
C1865      H1872   1.073       .  S
C1866      C1867   1.438       .  A
C1867      C1874   1.520       .  S
C1867      C1868   1.409       .  A
C1868      C1869   1.395       .  A
C1868      H1873   1.083       .  S
C1869      C1870   1.408       .  A
C1870      C1871   1.518       .  S
C1871      F1875   1.385       .  S
C1871      F1876   1.383       .  S
C1871      F1877   1.380       .  S
C1874      F1878   1.381       .  S
C1874      F1879   1.374       .  S
C1874      F1880   1.385       .  S
C1881      C1882   1.405       .  A
C1881      C1886   1.415       .  A
C1881      H1888   1.084       .  S
C1882      C1883   1.419       .  A
C1883      C1890   1.519       .  S
C1883      C1884   1.402       .  A
C1884      C1885   1.404       .  A
C1884      H1889   1.085       .  S
C1885      C1886   1.422       .  A
C1886      C1887   1.516       .  S
C1887      F1891   1.380       .  S
C1890      F1894   1.382       .  S
C1890      F1895   1.379       .  S
C1890      F1896   1.384       .  S
C1897      C1898   1.400       .  A
C1897      C1902   1.414       .  A
C1897      H1904   1.081       .  S
C1898      C1899   1.418       .  A
C1899      C1906   1.514       .  S
C1899      C1900   1.417       .  A
C1900      C1901   1.409       .  A
C1900      H1905   1.083       .  S
C1901      C1902   1.429       .  A
C1902      C1903   1.519       .  S
C1903      F1907   1.385       .  S
C1903      F1908   1.383       .  S
C1903      F1909   1.382       .  S
C1906      F1910   1.380       .  S
C1906      F1911   1.382       .  S
C1906      F1912   1.384       .  S
C1913      C1914   1.405       .  A
C1913      C1918   1.407       .  A
C1913      H1920   1.084       .  S
C1914      C1915   1.427       .  A
C1915      C1922   1.522       .  S
C1915      C1916   1.401       .  A
C1916      C1917   1.405       .  A
C1916      H1921   1.084       .  S
C1917      C1918   1.426       .  A
C1918      C1919   1.518       .  S
C1919      F1923   1.386       .  S
C1919      F1924   1.383       .  S
C1919      F1925   1.382       .  S
C1922      F1926   1.383       .  S
C1922      F1927   1.382       .  S
C1922      F1928   1.386       .  S
C1929      C1930   1.398       .  A
C1929      H1936   1.085       .  S
C1931      C1938   1.520       .  S
C1931      C1932   1.405       .  A
C1932      C1933   1.412       .  A
C1932      H1937   1.081       .  S
C1933      C1934   1.422       .  A
C1934      C1935   1.514       .  S
C1935      F1940   1.382       .  S
C1935      F1941   1.369       .  S
C1938      F1942   1.383       .  S
C1938      F1943   1.384       .  S
C1938      F1944   1.384       .  S
C1945      C1946   1.405       .  A
C1945      C2694   1.416       .  A
C1945      H1952   1.083       .  S
C1946      C1947   1.418       .  A
C1947      C1954   1.512       .  S
C1947      C2692   1.410       .  A
C1948      C2691   1.404       .  A
C1948      C1949   1.402   1_556  A
C1948      H1953   1.083   1_556  S
C1949      C1950   1.420   1_554  A
C1950      C1951   1.515       .  S
C1950      C2689   1.416       .  A
C1951      F2699   1.385       .  S
C1951      F1956   1.380   1_556  S
C1951      F1957   1.384   1_556  S
C1954      F1958   1.381       .  S
C1954      F1959   1.381       .  S
C1954      F1960   1.384       .  S
F1955      C2695   1.384       .  S
C1961      C1962   1.405       .  A
C1961      C1966   1.407       .  A
C1961      H1968   1.083       .  S
C1962      C1963   1.425       .  A
C1963      C1970   1.519       .  S
C1963      C1964   1.414       .  A
C1964      C1965   1.403       .  A
C1964      H1969   1.082       .  S
C1965      C1966   1.413       .  A
C1966      C1967   1.510       .  S
C1967      F1971   1.384       .  S
C1967      F1972   1.381       .  S
C1967      F1973   1.383       .  S
C1970      F1974   1.382       .  S
C1970      F1975   1.384       .  S
C1970      F1976   1.385       .  S
C1977      C1978   1.410       .  A
C1977      C1982   1.401       .  A
C1977      H1984   1.071       .  S
C1978      C1979   1.431       .  A
C1979      C1986   1.527       .  S
C1979      C1980   1.408       .  A
C1980      C1981   1.404       .  A
C1981      C1982   1.412       .  A
C1982      C1983   1.509   1_455  S
C1983      F1987   1.385       .  S
C1983      F1988   1.382       .  S
C1983      F1989   1.381       .  S
C1986      F1990   1.378       .  S
C1986      F1991   1.380       .  S
C1993      C1994   1.396       .  A
C1993      C1998   1.402       .  A
C1993      H2000   1.079   1_455  S
C1994      C1995   1.418       .  A
C1995      C2002   1.517       .  S
C1995      C1996   1.416       .  A
C1996      C1997   1.409       .  A
C1996      H2001   1.080       .  S
C1997      C1998   1.432       .  A
C1998      C1999   1.526   1_455  S
C1999      F2003   1.385       .  S
C1999      F2004   1.374   1_655  S
C1999      F2005   1.384       .  S
C2002      F2006   1.383       .  S
C2002      F2007   1.383       .  S
C2002      F2008   1.376       .  S
C2009      C2010   1.401       .  A
C2009      C2014   1.412       .  A
C2009      H2016   1.084       .  S
C2010      C2011   1.412       .  A
C2011      C2018   1.521       .  S
C2011      C2012   1.402       .  A
C2012      C2013   1.412       .  A
C2012      H2017   1.080       .  S
C2013      C2014   1.426       .  A
C2014      C2015   1.518       .  S
C2015      F2019   1.385       .  S
C2015      F2020   1.383       .  S
C2015      F2021   1.382       .  S
C2018      F2022   1.381       .  S
C2018      F2023   1.380       .  S
C2018      F2024   1.385       .  S
C2025      C2026   1.415       .  A
C2025      C2030   1.418       .  A
C2025      H2032   1.078       .  S
C2026      C2027   1.430       .  A
C2027      C2034   1.518       .  S
C2027      C2028   1.399       .  A
C2028      C2029   1.403       .  A
C2029      C2030   1.421       .  A
C2030      C2031   1.515       .  S
C2031      F2035   1.385       .  S
C2031      F2036   1.383       .  S
C2031      F2037   1.371       .  S
C2034      F2038   1.367       .  S
C2034      F2039   1.384       .  S
C2041      C2042   1.393       .  A
C2041      C2046   1.407       .  A
C2041      H2048   1.083       .  S
C2042      C2043   1.411       .  A
C2043      C2050   1.516       .  S
C2043      C2044   1.409       .  A
C2044      C2045   1.412       .  A
C2044      H2049   1.082       .  S
C2045      C2046   1.433       .  A
C2046      C2047   1.514       .  S
C2047      F2051   1.385       .  S
C2047      F2052   1.377       .  S
C2047      F2053   1.378       .  S
C2050      F2054   1.381       .  S
C2050      F2055   1.383       .  S
C2050      F2056   1.385       .  S
C2057      C2062   1.414       .  A
C2057      H2064   1.075       .  S
C2058      C2059   1.444       .  A
C2059      C2066   1.535       .  S
C2060      C2061   1.392       .  A
C2060      H2065   1.084       .  S
C2061      C2062   1.409       .  A
C2062      C2063   1.517       .  S
C2063      F2067   1.385       .  S
C2063      F2068   1.383       .  S
C2063      F2069   1.383       .  S
C2066      F2070   1.381       .  S
C2066      F2071   1.377       .  S
C2066      F2072   1.385       .  S
C2073      C2074   1.411       .  A
C2073      C2078   1.403       .  A
C2073      H2080   1.081       .  S
C2074      C2075   1.429       .  A
C2075      C2082   1.521       .  S
C2075      C2076   1.412       .  A
C2076      C2077   1.400       .  A
C2076      H2081   1.081       .  S
C2077      C2078   1.412       .  A
C2078      C2079   1.520       .  S
C2079      F2083   1.385       .  S
C2079      F2084   1.381       .  S
C2079      F2085   1.381       .  S
C2082      F2086   1.380       .  S
C2082      F2087   1.383       .  S
C2082      F2088   1.386       .  S
C2089      C2090   1.404       .  A
C2089      C2094   1.412       .  A
C2089      H2096   1.083       .  S
C2090      C2091   1.418       .  A
C2091      C2098   1.510       .  S
C2091      C2092   1.404       .  A
C2092      C2093   1.399       .  A
C2092      H2097   1.084       .  S
C2093      C2281   1.481       .  S
C2093      C2094   1.419       .  A
C2094      C2095   1.517       .  S
C2095      F2099   1.385       .  S
C2095      F2844   1.384       .  S
C2095      F2845   1.382       .  S
C2098      F2102   1.385       .  S
C2098      F2103   1.375       .  S
C2098      F2104   1.376       .  S
F2100      C2839   1.383   1_554  S
F2101      C2839   1.382   1_554  S
C2105      C2106   1.393       .  A
C2105      H2112   1.086       .  S
C2106      C2107   1.412       .  A
C2107      C2114   1.518       .  S
C2107      C2108   1.413       .  A
C2109      C2110   1.445       .  A
C2110      C2111   1.533       .  S
C2111      F2115   1.385       .  S
C2111      F2116   1.373       .  S
C2111      F2117   1.383       .  S
C2114      F2118   1.382       .  S
C2114      F2119   1.383       .  S
C2114      F2120   1.385       .  S
C2121      C2122   1.393       .  A
C2121      C2126   1.399       .  A
C2121      H2128   1.085       .  S
C2122      C2123   1.411       .  A
C2123      C2130   1.518       .  S
C2123      C2124   1.406       .  A
C2124      C2125   1.413       .  A
C2124      H2129   1.080       .  S
C2125      C2126   1.420       .  A
C2126      C2127   1.501       .  S
C2127      F2131   1.386       .  S
C2127      F2132   1.382       .  S
C2127      F2133   1.371       .  S
C2130      F2134   1.380       .  S
C2130      F2135   1.384       .  S
C2130      F2136   1.384       .  S
C2137      C2138   1.395       .  A
C2137      C2142   1.404       .  A
C2137      H2144   1.079       .  S
C2138      C2139   1.416       .  A
C2139      C2146   1.516       .  S
C2139      C2140   1.391       .  A
C2140      C2141   1.404       .  A
C2140      H2145   1.084       .  S
C2141      C2142   1.427       .  A
C2142      C2143   1.520       .  S
C2143      F2147   1.377       .  S
C2143      F2149   1.380       .  S
C2146      F2150   1.374       .  S
C2146      F2151   1.380       .  S
C2146      F2152   1.384       .  S
C2153      C2154   1.420       .  A
C2153      C2158   1.411       .  A
C2153      H2160   1.072       .  S
C2154      C2155   1.446       .  A
C2155      C2162   1.534       .  S
C2155      C2156   1.396       .  A
C2156      C2157   1.385       .  A
C2156      H2161   1.081       .  S
C2157      C2158   1.403       .  A
C2158      C2159   1.516       .  S
C2159      F2163   1.384       .  S
C2159      F2164   1.383       .  S
C2159      F2165   1.383       .  S
C2162      F2166   1.375       .  S
C2162      F2167   1.375       .  S
C2162      F2168   1.386       .  S
C2169      C2170   1.407       .  A
C2169      C2174   1.404       .  A
C2169      H2176   1.082       .  S
C2170      C2171   1.423       .  A
C2171      C2178   1.522       .  S
C2171      C2172   1.399       .  A
C2172      C2173   1.408       .  A
C2172      H2177   1.080       .  S
C2173      C2174   1.422       .  A
C2174      C2175   1.517       .  S
C2175      F2179   1.386       .  S
C2175      F2180   1.382       .  S
C2175      F2181   1.382       .  S
C2178      F2182   1.371       .  S
C2178      F2183   1.382       .  S
C2178      F2184   1.386       .  S
C2185      C2186   1.424       .  A
C2185      C2190   1.420       .  A
C2185      H2192   1.075       .  S
C2186      C2187   1.435       .  A
C2187      C2194   1.516   1_455  S
C2187      C2188   1.402       .  A
C2188      C2189   1.399       .  A
C2188      H2193   1.086       .  S
C2189      C2190   1.413       .  A
C2190      C2191   1.518       .  S
C2191      F2195   1.385       .  S
C2191      F2196   1.384       .  S
C2191      F2197   1.382       .  S
C2194      F2198   1.384       .  S
C2194      F2199   1.361       .  S
C2194      F2200   1.384       .  S
C2201      C2202   1.403       .  A
C2201      H2208   1.083       .  S
C2202      C2203   1.422       .  A
C2203      C2210   1.521       .  S
C2203      C2204   1.400       .  A
C2204      H2209   1.085   1_565  S
C2205      C2206   1.419       .  A
C2206      C2207   1.519       .  S
C2207      F2211   1.384       .  S
C2207      F2212   1.383       .  S
C2207      F2213   1.384       .  S
C2210      F2214   1.383       .  S
C2210      F2215   1.379   1_455  S
C2210      F2216   1.384       .  S
C2217      C2218   1.402   1_455  A
C2217      C2966   1.412   1_554  A
C2217      H2224   1.083       .  S
C2218      C2219   1.418       .  A
C2219      C2226   1.508       .  S
C2219      C2964   1.405   1_554  A
C2220      C2963   1.407       .  A
C2220      C2221   1.404       .  A
C2220      H2225   1.083       .  S
C2221      C2222   1.422   1_655  A
C2222      C2223   1.518       .  S
C2222      C2961   1.408       .  A
C2223      F2227   1.385       .  S
C2223      F2228   1.382       .  S
C2223      F2229   1.384       .  S
C2226      F2230   1.381       .  S
C2226      F2231   1.376       .  S
C2226      F2232   1.385       .  S
C2233      C2234   1.547   1_655  S
C2233      C2239   1.538       .  S
C2233      C2237   1.559       .  S
C2233      C2930   1.567   1_655  S
C2234      H2241   1.079       .  S
C2234      C2235   1.362       .  D
C2235      C2236   1.536   1_455  S
C2235      C2946   1.486       .  S
C2236      C2240   1.541       .  S
C2236      C2238   1.550       .  S
C2236      H2242   1.105       .  S
C2237      H2243   1.083       .  S
C2237      C2238   1.384       .  D
C2238      C2406   1.524       .  S
C2239      H2244   1.087   1_655  S
C2239      C2240   1.359       .  D
C2240      C2962   1.486       .  S
C2245      C2246   1.525       .  S
C2245      C2251   1.534       .  S
C2245      C2249   1.559       .  S
C2245      C2898   1.548       .  S
C2246      H2253   1.084       .  S
C2246      C2247   1.353       .  D
C2247      C2248   1.529       .  S
C2247      C2882   1.468       .  S
C2248      C2252   1.531       .  S
C2248      C2250   1.539       .  S
C2248      H2254   1.084       .  S
C2249      H2255   1.075       .  S
C2249      C2250   1.378       .  D
C2250      C2328   1.506       .  S
C2251      H2256   1.086       .  S
C2251      C2252   1.371       .  D
C2252      C2914   1.502       .  S
Zr2257     O2258   2.441       .  S
Zr2257     O2259   2.466       .  S
Zr2257     O2260   2.463       .  S
Zr2257     O2263   2.461       .  S
Zr2257     O2265   2.385       .  S
Zr2257     O2266   2.381       .  S
Zr2257     O2267   2.417       .  S
Zr2257     O2268   2.410       .  S
O2258      H2314   0.990       .  S
O2258      H2322   0.990       .  S
O2259      C2279   1.290       .  A
O2260      C2281   1.290       .  A
O2261     Zr2271   2.413       .  S
O2261      C2280   1.280       .  A
O2262     Zr2270   2.411       .  S
O2262      C2281   1.279       .  A
O2263      C2280   1.289       .  A
O2264     Zr2272   2.402       .  S
O2264      C2279   1.277       .  A
O2265     Zr2270   2.397       .  S
O2265     Zr2272   2.377       .  S
O2266     Zr2271   2.387       .  S
O2266     Zr2272   2.383       .  S
O2266      H2301   0.966       .  S
O2267     Zr2270   2.401       .  S
O2267     Zr2287   2.406       .  S
O2267      H2304   0.966       .  S
O2268     Zr2271   2.382       .  S
O2268     Zr2287   2.401       .  S
Zr2269     O2294   2.438       .  S
Zr2269     O2288   2.437       .  S
Zr2269     O2296   2.439       .  S
Zr2269     O2284   2.412       .  S
Zr2269     O2275   2.393       .  S
Zr2269     O2276   2.406       .  S
Zr2269     O2277   2.378       .  S
Zr2269     O2278   2.380       .  S
Zr2270     O2289   2.437       .  S
Zr2270     O2282   2.435       .  S
Zr2270     O2283   2.417       .  S
Zr2270     O2276   2.393       .  S
Zr2270     O2277   2.390       .  S
Zr2271     O2273   2.435       .  S
Zr2271     O2295   2.440       .  S
Zr2271     O2297   2.400       .  S
Zr2271     O2275   2.385       .  S
Zr2271     O2278   2.383       .  S
Zr2272     O2298   2.434       .  S
Zr2272     O2299   2.436       .  S
Zr2272     O2274   2.437       .  S
Zr2272     O2275   2.388       .  S
Zr2272     O2276   2.382       .  S
O2273      H2310   0.990       .  S
O2274      H2305   0.990       .  S
O2274      H2319   0.990       .  S
O2276      H2302   0.966       .  S
O2277     Zr2287   2.371       .  S
O2278     Zr2287   2.378       .  S
O2278      H2303   0.966       .  S
C2279      C2850   1.479       .  S
C2280      C2805   1.479       .  S
O2282      H2318   0.990       .  S
O2283      C2285   1.282       .  A
O2284      C2285   1.276       .  A
C2285      C2866   1.461       .  S
O2286     Zr2287   2.439       .  S
O2286      H2315   0.990       .  S
Zr2287     O2290   2.436       .  S
Zr2287     O2291   2.439       .  S
Zr2287     O2292   2.442       .  S
O2288      C2293   1.283       .  A
O2289      H2306   0.990       .  S
O2289      H2321   0.990       .  S
O2290      H2307   0.990       .  S
O2291      H2311   0.990       .  S
O2291      H2320   0.990       .  S
O2292      C2293   1.287       .  A
C2293      C2818   1.504       .  S
O2294      H2313   0.991       .  S
O2294      H2317   0.990       .  S
O2295      H2309   0.990       .  S
O2295      H2316   0.990       .  S
O2296      C2300   1.283       .  A
O2297      C2300   1.281       .  A
O2298      H2308   0.990       .  S
O2299      H2312   0.990       .  S
C2300      C2917   1.494       .  S
C2323      C2324   1.533       .  S
C2323      C2329   1.547       .  S
C2323      C2327   1.532       .  S
C2323      C2770   1.549       .  S
C2324      H2331   1.087       .  S
C2324      C2325   1.358       .  D
C2325      C2326   1.542       .  S
C2325      C2834   1.484       .  S
C2326      C2330   1.545       .  S
C2326      C2328   1.547       .  S
C2326      H2332   1.107       .  S
C2327      H2333   1.080       .  S
C2327      C2328   1.375       .  D
C2329      H2334   1.084       .  S
C2329      C2330   1.372       .  D
C2330      C2786   1.490       .  S
Zr2335     O2336   2.440       .  S
Zr2335     O2337   2.461       .  S
Zr2335     O2338   2.435       .  S
Zr2335     O2341   2.457       .  S
Zr2335     O2343   2.387       .  S
Zr2335     O2344   2.380       .  S
Zr2335     O2345   2.417       .  S
Zr2335     O2346   2.401       .  S
O2336      H2392   0.990       .  S
O2336      H2400   0.990       .  S
O2337      C2357   1.286       .  A
O2338      C2359   1.286       .  A
O2339     Zr2349   2.398   1_455  S
O2339      C2358   1.278   1_455  A
O2340     Zr2348   2.450       .  S
O2340      C2359   1.286       .  A
O2341      C2358   1.289       .  A
O2342     Zr2350   2.409       .  S
O2342      C2357   1.281       .  A
O2343     Zr2348   2.401       .  S
O2343     Zr2350   2.373       .  S
O2344     Zr2349   2.395       .  S
O2344     Zr2350   2.376       .  S
O2344      H2379   0.966       .  S
O2345     Zr2348   2.404       .  S
O2345     Zr2365   2.395       .  S
O2345      H2382   0.965       .  S
O2346     Zr2349   2.382       .  S
O2346     Zr2365   2.390       .  S
Zr2347     O2372   2.435       .  S
Zr2347     O2366   2.443       .  S
Zr2347     O2374   2.460       .  S
Zr2347     O2362   2.468       .  S
Zr2347     O2353   2.393       .  S
Zr2347     O2354   2.415       .  S
Zr2347     O2355   2.383       .  S
Zr2347     O2356   2.381       .  S
Zr2348     O2367   2.435       .  S
Zr2348     O2360   2.435       .  S
Zr2348     O2361   2.450       .  S
Zr2348     O2354   2.405       .  S
Zr2348     O2355   2.394       .  S
Zr2349     O2351   2.435   1_655  S
Zr2349     O2373   2.440       .  S
Zr2349     O2375   2.408       .  S
Zr2349     O2353   2.384       .  S
Zr2349     O2356   2.387       .  S
Zr2350     O2376   2.436       .  S
Zr2350     O2377   2.435       .  S
Zr2350     O2352   2.437       .  S
Zr2350     O2353   2.386       .  S
Zr2350     O2354   2.393       .  S
O2351      H2388   0.990       .  S
O2352      H2383   0.990       .  S
O2352      H2397   0.990       .  S
O2354      H2380   0.965       .  S
O2355     Zr2365   2.381       .  S
O2356     Zr2365   2.384       .  S
O2356      H2381   0.966   1_655  S
C2359      C2757   1.508       .  S
O2360      H2396   0.990       .  S
O2361      C2363   1.290       .  A
O2362      C2363   1.290       .  A
C2363      C2789   1.513       .  S
O2364     Zr2365   2.440   1_455  S
O2364      H2393   0.990       .  S
Zr2365     O2368   2.437       .  S
Zr2365     O2369   2.438   1_655  S
Zr2365     O2370   2.425   1_655  S
O2366      C2371   1.287   1_655  A
O2367      H2384   0.990       .  S
O2367      H2399   0.990       .  S
O2368      H2385   0.990       .  S
O2369      H2389   0.990       .  S
O2369      H2398   0.989       .  S
O2370      C2371   1.280       .  A
C2371      C2738   1.501       .  S
O2372      H2391   0.990       .  S
O2372      H2395   0.990       .  S
O2373      H2387   0.990       .  S
O2373      H2394   0.990       .  S
O2374      C2378   1.290       .  A
O2375      C2378   1.278       .  A
O2376      H2386   0.990       .  S
O2377      H2390   0.990       .  S
C2378      C2965   1.489       .  S
C2401      C2402   1.532       .  S
C2401      C2407   1.526       .  S
C2401      C2405   1.555       .  S
C2401      C2853   1.550       .  S
C2402      H2409   1.087       .  S
C2402      C2403   1.359       .  D
C2403      C2404   1.538       .  S
C2403      C2754   1.487       .  S
C2404      C2408   1.552       .  S
C2404      C2406   1.558       .  S
C2404      H2410   1.101       .  S
C2405      H2411   1.076       .  S
C2405      C2406   1.383       .  D
C2407      H2412   1.083       .  S
C2407      C2408   1.362       .  D
C2408      C2869   1.501       .  S
C2413      C2414   1.538       .  S
C2413      C2419   1.538       .  S
C2413      C2417   1.558       .  S
C2413      C2802   1.548       .  S
C2414      H2421   1.086       .  S
C2414      C2415   1.361       .  D
C2415      C2416   1.537       .  S
C2415      C2821   1.487       .  S
C2416      C2420   1.539       .  S
C2416      C2418   1.553       .  S
C2416      H2422   1.104       .  S
C2417      H2423   1.079       .  S
C2417      C2418   1.378       .  D
C2418      C2586   1.508       .  S
C2419      H2424   1.087       .  S
C2419      C2420   1.358       .  D
C2420      C2709   1.495       .  S
C2425      C2426   1.552       .  S
C2425      C2431   1.544       .  S
C2425      C2429   1.532       .  S
C2425      C2722   1.554       .  S
C2426      H2433   1.079       .  S
C2426      C2427   1.361       .  D
C2427      C2428   1.545       .  S
C2427      C2741   1.498       .  S
C2428      C2432   1.539       .  S
C2428      C2430   1.559       .  S
C2428      H2434   1.106       .  S
C2429      H2435   1.077       .  S
C2429      C2430   1.371       .  D
C2430      C2508   1.499       .  S
C2431      H2436   1.087       .  S
C2431      C2432   1.361       .  D
C2432      C2690   1.496       .  S
Zr2437     O2438   2.440       .  S
Zr2437     O2439   2.458       .  S
Zr2437     O2440   2.486       .  S
Zr2437     O2443   2.464       .  S
Zr2437     O2445   2.386       .  S
Zr2437     O2446   2.391       .  S
Zr2437     O2447   2.413       .  S
Zr2437     O2448   2.417       .  S
O2438      H2494   0.990       .  S
O2438      H2502   0.990       .  S
O2439      C2459   1.288       .  A
O2440      C2461   1.294       .  A
O2441     Zr2451   2.406       .  S
O2441      C2460   1.282       .  A
O2442     Zr2450   2.421       .  S
O2442      C2461   1.280       .  A
O2443      C2460   1.289       .  A
O2444     Zr2452   2.409       .  S
O2444      C2459   1.277       .  A
O2445     Zr2450   2.398       .  S
O2445     Zr2452   2.383       .  S
O2446     Zr2451   2.391       .  S
O2446     Zr2452   2.379       .  S
O2446      H2481   0.966       .  S
O2447     Zr2450   2.401       .  S
O2447     Zr2467   2.402       .  S
O2447      H2484   0.965       .  S
O2448     Zr2451   2.396       .  S
O2448     Zr2467   2.399       .  S
Zr2449     O2474   2.439       .  S
Zr2449     O2468   2.424       .  S
Zr2449     O2476   2.455       .  S
Zr2449     O2464   2.438       .  S
Zr2449     O2455   2.396       .  S
Zr2449     O2456   2.409       .  S
Zr2449     O2457   2.382       .  S
Zr2449     O2458   2.380       .  S
Zr2450     O2469   2.437       .  S
Zr2450     O2462   2.434       .  S
Zr2450     O2463   2.421       .  S
Zr2450     O2456   2.403       .  S
Zr2450     O2457   2.390       .  S
Zr2451     O2453   2.435       .  S
Zr2451     O2475   2.436       .  S
Zr2451     O2477   2.432       .  S
Zr2451     O2455   2.385       .  S
Zr2451     O2458   2.390       .  S
Zr2452     O2478   2.437       .  S
Zr2452     O2479   2.436       .  S
Zr2452     O2454   2.438       .  S
Zr2452     O2455   2.392       .  S
Zr2452     O2456   2.386       .  S
O2453      H2490   0.990       .  S
O2454      H2485   0.990       .  S
O2454      H2499   0.990       .  S
O2456      H2482   0.965       .  S
O2457     Zr2467   2.369       .  S
O2458     Zr2467   2.381       .  S
O2458      H2483   0.966       .  S
C2459      C2658   1.499       .  S
C2460      C2933   1.488       .  S
C2461      C2645   1.506       .  S
O2462      H2498   0.990       .  S
O2463      C2465   1.283       .  A
O2464      C2465   1.282       .  A
C2465      C2674   1.471       .  S
O2466     Zr2467   2.439       .  S
O2466      H2495   0.991       .  S
Zr2467     O2470   2.438       .  S
Zr2467     O2471   2.439       .  S
Zr2467     O2472   2.429       .  S
O2468      C2473   1.280       .  A
O2469      H2486   0.990       .  S
O2469      H2501   0.990       .  S
O2470      H2487   0.990       .  S
O2471      H2491   0.990       .  S
O2471      H2500   0.989       .  S
O2472      C2473   1.283       .  A
C2473      C2949   1.482       .  S
O2474      H2493   0.990       .  S
O2474      H2497   0.990       .  S
O2475      H2489   0.990       .  S
O2475      H2496   0.990       .  S
O2476      C2480   1.288       .  A
O2477      C2480   1.284       .  A
O2478      H2488   0.990       .  S
O2479      H2492   0.990       .  S
C2480      C2693   1.490       .  S
C2503      C2504   1.546       .  S
C2503      C2509   1.538       .  S
C2503      C2507   1.538       .  S
C2503      C2610   1.551       .  S
C2504      H2511   1.086       .  S
C2504      C2505   1.364       .  D
C2505      C2506   1.541       .  S
C2505      C2642   1.502       .  S
C2506      C2510   1.544       .  S
C2506      C2508   1.555       .  S
C2506      H2512   1.106       .  S
C2507      H2513   1.075       .  S
C2507      C2508   1.370       .  D
C2509      H2514   1.085       .  S
C2509      C2510   1.358       .  D
C2510      C2626   1.485       .  S
Zr2515     O2516   2.441       .  S
Zr2515     O2517   2.439       .  S
Zr2515     O2518   2.455       .  S
Zr2515     O2521   2.446       .  S
Zr2515     O2523   2.390       .  S
Zr2515     O2524   2.384       .  S
Zr2515     O2525   2.407       .  S
Zr2515     O2526   2.403       .  S
O2516      H2572   0.990       .  S
O2516      H2580   0.989       .  S
O2517      C2537   1.283       .  A
O2518      C2539   1.287       .  A
O2519     Zr2529   2.393       .  S
O2519      C2538   1.277       .  A
O2520     Zr2528   2.447       .  S
O2520      C2539   1.287       .  A
O2521      C2538   1.285       .  A
O2522     Zr2530   2.399       .  S
O2522      C2537   1.278       .  A
O2523     Zr2528   2.401       .  S
O2523     Zr2530   2.385       .  S
O2524     Zr2529   2.392       .  S
O2524     Zr2530   2.375       .  S
O2524      H2559   0.964       .  S
O2525     Zr2528   2.401       .  S
O2525     Zr2545   2.377       .  S
O2525      H2562   0.963       .  S
O2526     Zr2529   2.394       .  S
O2526     Zr2545   2.391       .  S
Zr2527     O2552   2.440       .  S
Zr2527     O2554   2.463       .  S
Zr2527     O2533   2.384       .  S
Zr2527     O2534   2.409       .  S
Zr2527     O2535   2.384       .  S
Zr2527     O2536   2.378       .  S
Zr2528     O2547   2.437       .  S
Zr2528     O2540   2.434       .  S
Zr2528     O2541   2.442       .  S
Zr2528     O2534   2.407       .  S
Zr2528     O2535   2.392       .  S
Zr2529     O2531   2.436       .  S
Zr2529     O2553   2.441       .  S
Zr2529     O2555   2.415       .  S
Zr2529     O2533   2.386       .  S
Zr2529     O2536   2.376       .  S
Zr2530     O2556   2.438       .  S
Zr2530     O2557   2.435       .  S
Zr2530     O2532   2.437       .  S
Zr2530     O2533   2.389       .  S
Zr2530     O2534   2.384       .  S
O2531      H2568   0.990       .  S
O2532      H2563   0.990       .  S
O2532      H2577   0.990       .  S
O2534      H2560   0.966       .  S
O2535     Zr2545   2.376       .  S
O2536     Zr2545   2.382       .  S
O2536      H2561   0.966       .  S
C2537      C2613   1.474       .  S
C2538      C2901   1.465       .  S
C2539      C2594   1.485   1_556  S
O2540      H2576   0.990       .  S
O2542      C2543   1.284       .  A
C2543      C2629   1.494       .  S
O2544     Zr2545   2.443       .  S
O2544      H2573   0.990       .  S
Zr2545     O2548   2.438       .  S
Zr2545     O2549   2.438       .  S
Zr2545     O2550   2.406       .  S
O2546      C2551   1.284       .  A
O2547      H2564   0.990       .  S
O2547      H2579   0.990       .  S
O2548      H2565   0.990       .  S
O2549      H2569   0.990       .  S
O2549      H2578   0.989       .  S
C2551      C2885   1.488       .  S
O2552      H2571   0.990       .  S
O2552      H2575   0.991   1_565  S
O2553      H2567   0.990       .  S
O2553      H2574   0.990       .  S
O2554      C2558   1.291       .  A
O2555      C2558   1.279       .  A
O2556      H2566   0.990       .  S
O2557      H2570   0.990       .  S
C2558      C2706   1.499       .  S
C2581      C2582   1.543       .  S
C2581      C2587   1.538       .  S
C2581      C2585   1.524       .  S
C2581      C2661   1.541       .  S
C2582      H2589   1.085       .  S
C2582      C2583   1.360       .  D
C2583      C2584   1.537       .  S
C2583      C2597   1.486       .  S
C2584      C2588   1.546       .  S
C2584      C2586   1.559       .  S
C2584      H2590   1.101       .  S
C2585      H2591   1.080       .  S
C2585      C2586   1.367       .  D
C2587      H2592   1.075       .  S
C2587      C2588   1.373       .  D
C2588      C2677   1.506       .  S
C2593      C2598   1.410       .  A
C2595      C2602   1.516       .  S
C2595      C2596   1.406       .  A
C2596      C2597   1.399       .  A
C2596      H2601   1.083       .  S
C2597      C2598   1.423       .  A
C2598      C2599   1.520       .  S
C2599      F2603   1.385       .  S
C2599      F2604   1.381       .  S
C2599      F2605   1.381       .  S
C2602      F2606   1.383       .  S
C2602      F2608   1.385       .  S
C2609      C2610   1.419       .  A
C2609      C2614   1.403       .  A
C2609      H2616   1.075       .  S
C2610      C2611   1.436       .  A
C2611      C2618   1.519       .  S
C2611      C2612   1.406       .  A
C2612      C2613   1.394       .  A
C2612      H2617   1.084       .  S
C2613      C2614   1.408       .  A
C2614      C2615   1.519       .  S
C2615      F2619   1.385       .  S
C2615      F2620   1.383       .  S
C2615      F2621   1.380       .  S
C2618      F2622   1.381       .  S
C2618      F2623   1.372       .  S
C2618      F2624   1.386       .  S
C2625      C2626   1.405       .  A
C2625      C2630   1.415       .  A
C2625      H2632   1.084       .  S
C2626      C2627   1.420       .  A
C2627      C2634   1.522       .  S
C2627      C2628   1.401       .  A
C2628      C2629   1.404       .  A
C2628      H2633   1.085       .  S
C2629      C2630   1.423       .  A
C2630      C2631   1.517       .  S
C2631      F2635   1.383       .  S
C2634      F2638   1.384       .  S
C2634      F2639   1.380       .  S
C2634      F2640   1.383       .  S
C2641      C2642   1.399       .  A
C2641      C2646   1.413       .  A
C2641      H2648   1.082       .  S
C2642      C2643   1.420       .  A
C2643      C2650   1.514       .  S
C2643      C2644   1.415       .  A
C2644      C2645   1.407       .  A
C2644      H2649   1.083       .  S
C2645      C2646   1.429       .  A
C2646      C2647   1.519       .  S
C2647      F2651   1.385       .  S
C2647      F2652   1.383       .  S
C2647      F2653   1.382       .  S
C2650      F2654   1.378       .  S
C2650      F2655   1.383       .  S
C2650      F2656   1.385       .  S
C2657      C2658   1.409       .  A
C2657      C2662   1.410       .  A
C2657      H2664   1.084       .  S
C2658      C2659   1.426       .  A
C2659      C2666   1.521       .  S
C2659      C2660   1.403       .  A
C2660      C2661   1.406       .  A
C2660      H2665   1.084       .  S
C2661      C2662   1.424       .  A
C2662      C2663   1.518       .  S
C2663      F2667   1.384       .  S
C2663      F2668   1.383       .  S
C2663      F2669   1.384       .  S
C2666      F2670   1.383       .  S
C2666      F2671   1.383       .  S
C2666      F2672   1.386       .  S
C2673      C2674   1.397       .  A
C2673      H2680   1.084       .  S
C2675      C2682   1.520       .  S
C2675      C2676   1.404       .  A
C2676      C2677   1.416       .  A
C2676      H2681   1.081       .  S
C2677      C2678   1.428       .  A
C2678      C2679   1.515       .  S
C2679      F2684   1.382       .  S
C2679      F2685   1.373       .  S
C2682      F2686   1.382       .  S
C2682      F2687   1.384       .  S
C2682      F2688   1.384       .  S
C2689      C2690   1.405       .  A
C2689      H2696   1.083       .  S
C2690      C2691   1.416       .  A
C2691      C2698   1.507       .  S
C2692      C2693   1.402       .  A
C2692      H2697   1.083       .  S
C2693      C2694   1.420       .  A
C2694      C2695   1.517       .  S
C2695      F2700   1.381       .  S
C2695      F2701   1.384       .  S
C2698      F2702   1.380       .  S
C2698      F2703   1.381       .  S
C2698      F2704   1.385       .  S
C2705      C2706   1.405       .  A
C2705      C2710   1.409       .  A
C2705      H2712   1.083       .  S
C2706      C2707   1.428       .  A
C2707      C2714   1.521       .  S
C2707      C2708   1.414       .  A
C2708      C2709   1.401       .  A
C2708      H2713   1.082       .  S
C2709      C2710   1.416       .  A
C2710      C2711   1.513       .  S
C2711      F2715   1.385       .  S
C2711      F2716   1.382       .  S
C2711      F2717   1.381       .  S
C2714      F2718   1.383       .  S
C2714      F2719   1.384       .  S
C2714      F2720   1.385       .  S
C2721      C2722   1.417       .  A
C2721      C2726   1.405       .  A
C2721      H2728   1.067       .  S
C2722      C2723   1.437       .  A
C2723      C2730   1.530       .  S
C2723      C2724   1.410       .  A
C2724      C2725   1.401       .  A
C2725      C2726   1.409       .  A
C2726      C2727   1.515   1_455  S
C2727      F2731   1.385       .  S
C2727      F2732   1.384       .  S
C2727      F2733   1.381       .  S
C2730      F2734   1.378       .  S
C2730      F2735   1.381       .  S
C2737      C2738   1.398       .  A
C2737      C2742   1.399       .  A
C2737      H2744   1.076   1_455  S
C2738      C2739   1.422       .  A
C2739      C2746   1.519       .  S
C2739      C2740   1.420       .  A
C2740      C2741   1.409       .  A
C2740      H2745   1.079       .  S
C2741      C2742   1.426       .  A
C2742      C2743   1.524   1_455  S
C2743      F2747   1.384       .  S
C2743      F2748   1.371   1_655  S
C2743      F2749   1.383       .  S
C2746      F2750   1.383       .  S
C2746      F2751   1.382       .  S
C2746      F2752   1.376       .  S
C2753      C2754   1.403       .  A
C2753      C2758   1.413       .  A
C2753      H2760   1.083       .  S
C2754      C2755   1.418       .  A
C2755      C2762   1.521       .  S
C2755      C2756   1.402       .  A
C2756      C2757   1.411       .  A
C2756      H2761   1.083       .  S
C2757      C2758   1.428       .  A
C2758      C2759   1.519       .  S
C2759      F2763   1.385       .  S
C2759      F2764   1.383       .  S
C2759      F2765   1.381       .  S
C2762      F2766   1.383       .  S
C2762      F2767   1.378       .  S
C2762      F2768   1.384       .  S
C2769      C2770   1.412       .  A
C2769      C2774   1.418       .  A
C2769      H2776   1.079       .  S
C2770      C2771   1.431       .  A
C2771      C2778   1.521       .  S
C2771      C2772   1.401       .  A
C2772      C2773   1.405       .  A
C2773      C2774   1.422       .  A
C2774      C2775   1.515       .  S
C2775      F2779   1.385       .  S
C2775      F2780   1.384       .  S
C2775      F2781   1.375       .  S
C2778      F2782   1.369       .  S
C2778      F2783   1.383       .  S
C2785      C2786   1.396       .  A
C2785      C2790   1.408       .  A
C2785      H2792   1.084       .  S
C2786      C2787   1.414       .  A
C2787      C2794   1.516       .  S
C2787      C2788   1.413       .  A
C2788      C2789   1.412       .  A
C2788      H2793   1.082       .  S
C2789      C2790   1.429       .  A
C2790      C2791   1.508       .  S
C2791      F2795   1.385       .  S
C2791      F2796   1.377       .  S
C2791      F2797   1.378       .  S
C2794      F2798   1.378       .  S
C2794      F2799   1.384       .  S
C2794      F2800   1.384       .  S
C2801      C2806   1.413       .  A
C2801      H2808   1.075       .  S
C2802      C2803   1.440       .  A
C2803      C2810   1.530       .  S
C2804      C2805   1.392       .  A
C2804      H2809   1.084       .  S
C2805      C2806   1.409       .  A
C2806      C2807   1.517       .  S
C2807      F2811   1.385       .  S
C2807      F2812   1.383       .  S
C2807      F2813   1.383       .  S
C2810      F2814   1.383       .  S
C2810      F2815   1.375       .  S
C2810      F2816   1.385       .  S
C2817      C2818   1.411       .  A
C2817      C2822   1.409       .  A
C2817      H2824   1.082       .  S
C2818      C2819   1.429       .  A
C2819      C2826   1.520       .  S
C2819      C2820   1.411       .  A
C2820      C2821   1.398       .  A
C2820      H2825   1.081       .  S
C2821      C2822   1.415       .  A
C2822      C2823   1.520       .  S
C2823      F2827   1.385       .  S
C2823      F2828   1.381       .  S
C2823      F2829   1.382       .  S
C2826      F2830   1.381       .  S
C2826      F2831   1.383       .  S
C2826      F2832   1.385       .  S
C2833      C2834   1.404       .  A
C2833      C2838   1.408       .  A
C2833      H2840   1.084       .  S
C2834      C2835   1.418       .  A
C2835      C2842   1.511       .  S
C2835      C2836   1.402       .  A
C2836      C2837   1.398       .  A
C2836      H2841   1.084       .  S
C2837      C2838   1.416       .  A
C2838      C2839   1.517       .  S
C2839      F2843   1.385       .  S
C2842      F2846   1.385       .  S
C2842      F2847   1.376       .  S
C2842      F2848   1.376       .  S
C2849      C2850   1.393       .  A
C2849      H2856   1.086       .  S
C2850      C2851   1.411       .  A
C2851      C2858   1.518       .  S
C2851      C2852   1.412       .  A
C2853      C2854   1.445       .  A
C2854      C2855   1.533       .  S
C2855      F2859   1.385       .  S
C2855      F2860   1.376       .  S
C2855      F2861   1.382       .  S
C2858      F2862   1.382       .  S
C2858      F2863   1.383       .  S
C2858      F2864   1.384       .  S
C2865      C2866   1.392       .  A
C2865      C2870   1.399       .  A
C2865      H2872   1.084       .  S
C2866      C2867   1.409       .  A
C2867      C2874   1.519       .  S
C2867      C2868   1.404       .  A
C2868      C2869   1.413       .  A
C2868      H2873   1.080       .  S
C2869      C2870   1.419       .  A
C2870      C2871   1.499       .  S
C2871      F2875   1.386       .  S
C2871      F2876   1.382       .  S
C2871      F2877   1.373       .  S
C2874      F2878   1.380       .  S
C2874      F2879   1.384       .  S
C2874      F2880   1.384       .  S
C2881      C2882   1.393       .  A
C2881      C2886   1.403       .  A
C2881      H2888   1.077       .  S
C2882      C2883   1.414       .  A
C2883      C2890   1.518       .  S
C2883      C2884   1.393       .  A
C2884      C2885   1.407       .  A
C2884      H2889   1.084       .  S
C2885      C2886   1.429       .  A
C2886      C2887   1.522       .  S
C2887      F2891   1.381       .  S
C2887      F2893   1.382       .  S
C2890      F2894   1.376       .  S
C2890      F2895   1.383       .  S
C2890      F2896   1.384       .  S
C2897      C2898   1.421       .  A
C2897      C2902   1.411       .  A
C2897      H2904   1.072       .  S
C2898      C2899   1.446       .  A
C2899      C2906   1.537       .  S
C2899      C2900   1.397       .  A
C2900      C2901   1.386       .  A
C2900      H2905   1.080       .  S
C2901      C2902   1.403       .  A
C2902      C2903   1.516       .  S
C2903      F2907   1.384       .  S
C2903      F2908   1.383       .  S
C2903      F2909   1.384       .  S
C2906      F2910   1.375       .  S
C2906      F2911   1.375       .  S
C2906      F2912   1.386       .  S
C2913      C2914   1.411       .  A
C2913      C2918   1.405       .  A
C2913      H2920   1.082       .  S
C2914      C2915   1.427       .  A
C2915      C2922   1.523       .  S
C2915      C2916   1.398       .  A
C2916      C2917   1.406       .  A
C2916      H2921   1.081       .  S
C2917      C2918   1.419       .  A
C2918      C2919   1.517       .  S
C2919      F2923   1.385       .  S
C2919      F2924   1.381       .  S
C2919      F2925   1.380       .  S
C2922      F2926   1.373       .  S
C2922      F2927   1.382       .  S
C2922      F2928   1.386       .  S
C2929      C2930   1.425       .  A
C2929      C2934   1.418       .  A
C2929      H2936   1.073       .  S
C2930      C2931   1.437       .  A
C2931      C2938   1.515   1_455  S
C2931      C2932   1.402       .  A
C2932      C2933   1.394       .  A
C2932      H2937   1.086       .  S
C2933      C2934   1.410       .  A
C2934      C2935   1.519       .  S
C2935      F2939   1.385       .  S
C2935      F2940   1.384       .  S
C2935      F2941   1.382       .  S
C2938      F2942   1.384       .  S
C2938      F2943   1.359       .  S
C2938      F2944   1.384       .  S
C2945      C2946   1.402       .  A
C2945      H2952   1.083       .  S
C2946      C2947   1.418       .  A
C2947      C2954   1.520       .  S
C2947      C2948   1.403       .  A
C2948      H2953   1.083   1_565  S
C2949      C2950   1.420       .  A
C2950      C2951   1.520       .  S
C2951      F2955   1.385       .  S
C2951      F2956   1.382       .  S
C2951      F2957   1.384       .  S
C2954      F2958   1.381       .  S
C2954      F2959   1.380   1_455  S
C2954      F2960   1.384       .  S
C2961      C2962   1.399   1_455  A
C2961      H2968   1.083       .  S
C2962      C2963   1.416       .  A
C2963      C2970   1.512       .  S
C2964      C2965   1.400       .  A
C2964      H2969   1.083       .  S
C2965      C2966   1.424   1_655  A
C2966      C2967   1.518       .  S
C2967      F2971   1.385       .  S
C2967      F2972   1.382       .  S
C2967      F2973   1.384       .  S
C2970      F2974   1.382       .  S
C2970      F2975   1.380       .  S
C2970      F2976   1.385       .  S
