geometry optimzed in LAMMPS
_audit_creation_date              2020-11-30 
_audit_creation_method            'lammps2cif' 
_symmetry_space_group_name_H-M    'P1' 
_symmetry_Int_Tables_number       1 
_symmetry_cell_setting            triclinic 
loop_ 
_symmetry_equiv_pos_as_xyz 
  x,y,z 
_cell_length_a                    32.16241238 
_cell_length_b                    32.03898876401462 
_cell_length_c                    26.174197683138665 
_cell_angle_alpha                 89.03106601767541 
_cell_angle_beta                  88.62981753025414 
_cell_angle_gamma                 89.76276667101702 
loop_ 
_atom_site_label 
_atom_site_type_symbol 
_atom_site_fract_x 
_atom_site_fract_y 
_atom_site_fract_z 
_atom_site_charge 
O1          O  0.12217570  0.04998909  0.99793336    -0.56800
C2          C  0.14597269  0.92318118  0.98587108     0.75900
O3          O  0.23378514  0.03029254  0.92559342    -0.57900
C4          C  0.14211133  0.08336894  0.00563138     0.75800
C5          C  0.22349114  0.99075121  0.08968468     0.78200
Cd6        Cd  0.18411423  0.00412275  0.99292751     1.37500
O7          O  0.12515416  0.95581037  0.99667886    -0.56800
O8          O  0.18914827  0.00952520  0.08553361    -0.55600
C9          C  0.21160932  0.01866845  0.88891391     0.78200
O10         O  0.24195893  0.98013884  0.04842959    -0.57900
O11         O  0.18471196  0.92779967  0.97842449    -0.56400
O12         O  0.18116623  0.07997073  0.00907658    -0.56400
O13         O  0.17916193  0.99838124  0.90050414    -0.55500
O14         O  0.29307229  0.87824396  0.23944561    -0.56800
C15         C  0.17071559  0.90830601  0.25478101     0.75900
O16         O  0.24829405  0.93990421  0.33265366    -0.57900
C17         C  0.32761161  0.89614845  0.22988383     0.75800
C18         C  0.23824484  0.97828545  0.14030286     0.78200
Cd19       Cd  0.25214867  0.94272866  0.24002295     1.37500
O20         O  0.20210454  0.88592201  0.24303010    -0.56800
O21         O  0.25805821  0.94455621  0.14645172    -0.55600
C22         C  0.26964830  0.97205537  0.33999893     0.78200
O23         O  0.22828179  0.99823007  0.18033553    -0.57900
O24         O  0.17697846  0.94695779  0.25991531    -0.56400
O25         O  0.32683201  0.93532147  0.22267744    -0.56400
O26         O  0.28112833  0.99331359  0.30072403    -0.55500
O27         O  0.28280378  0.11955052  0.73235495    -0.56800
C28         C  0.15305318  0.10464043  0.72034345     0.75900
O29         O  0.25134222  0.00361772  0.67633819    -0.57900
C30         C  0.31325062  0.09654527  0.74528183     0.75800
C31         C  0.22070333  0.03088327  0.83567102     0.78200
Cd32       Cd  0.23213403  0.06245926  0.73295458     1.37500
O33         O  0.18556708  0.12390803  0.73297614    -0.56800
O34         O  0.23960622  0.06448738  0.82530556    -0.55600
C35         C  0.25189865  0.02633415  0.63605352     0.78200
O36         O  0.20767269  0.01029509  0.79817234    -0.57900
O37         O  0.15718397  0.06604211  0.71195252    -0.56400
O38         O  0.30603298  0.05805790  0.75212931    -0.56400
O39         O  0.24083340  0.06397218  0.64063754    -0.55500
O40         O  0.37373349  0.04133024  0.49630244    -0.56800
C41         C  0.35325253  0.91665999  0.51126116     0.75900
O42         O  0.29810378  0.98598419  0.58489399    -0.57900
C43         C  0.35344487  0.07378092  0.48333129     0.75800
C44         C  0.28239775  0.98201248  0.39164838     0.78200
Cd45       Cd  0.31280529  0.99503590  0.49263076     1.37500
O46         O  0.37469386  0.94859771  0.49869050    -0.56800
O47         O  0.31639083  0.00014928  0.39899600    -0.55600
C48         C  0.26834987  0.01169257  0.58693693     0.78200
O49         O  0.26141841  0.97055145  0.43104186    -0.57900
O50         O  0.31426548  0.92162941  0.51514569    -0.56400
O51         O  0.31513307  0.06929724  0.47547598    -0.56400
O52         O  0.25645352  0.02711664  0.54485031    -0.55500
O53         O  0.87547944  0.04847680  0.97574375    -0.56800
C54         C  0.85596292  0.92110371  0.95387692     0.75900
O55         O  0.75940497  0.00189421  0.04343087    -0.57900
C56         C  0.85384965  0.07860933  0.99296828     0.75800
C57         C  0.77995457  0.02008205  0.87607853     0.78200
Cd58       Cd  0.81536374  0.99956811  0.97360139     1.37500
O59         O  0.87604087  0.95282573  0.96782181    -0.56800
O60         O  0.81509316  0.03220436  0.89013542    -0.55600
C61         C  0.78104504  0.98036757  0.07423268     0.78200
O62         O  0.75918505  0.99729522  0.90753119    -0.57900
O63         O  0.81771260  0.92651054  0.94532751    -0.56400
O64         O  0.81599252  0.07106031  0.00360642    -0.56400
O65         O  0.81630507  0.96840792  0.05803399    -0.55500
O66         O  0.77956295  0.13545459  0.72936860    -0.56800
C67         C  0.65757224  0.10471659  0.75881751     0.75900
O68         O  0.74801842  0.01763391  0.66136725    -0.57900
C69         C  0.81152564  0.11981010  0.70746202     0.75800
C70         C  0.76472022  0.03443195  0.82636102     0.78200
Cd71       Cd  0.73845825  0.07094264  0.73083465     1.37500
O72         O  0.68654825  0.12780434  0.74071286    -0.56800
O73         O  0.77714611  0.06901879  0.80829157    -0.55600
C74         C  0.72337719  0.03669993  0.63175178     0.78200
O75         O  0.73988776  0.01401686  0.79933758    -0.57900
O76         O  0.66671640  0.06670251  0.76664411    -0.56400
O77         O  0.80841822  0.08265262  0.69242927    -0.56400
O78         O  0.70589225  0.06912265  0.64879260    -0.55500
O79         O  0.62543555  0.95666307  0.48294306    -0.56800
C80         C  0.64837654  0.08299788  0.46878138     0.75900
O81         O  0.74020758  0.00876698  0.54829023    -0.57900
C82         C  0.64374840  0.92430391  0.49968437     0.75800
C83         C  0.72061323  0.98688027  0.37849806     0.78200
Cd84       Cd  0.68648962  0.00252602  0.47980637     1.37500
O85         O  0.62794751  0.04927553  0.47370747    -0.56800
O86         O  0.68562202  0.00392279  0.38613016    -0.55600
C87         C  0.71342507  0.02258594  0.58046488     0.78200
O88         O  0.74230430  0.97968715  0.41770150    -0.57900
O89         O  0.68762932  0.07979164  0.46391392    -0.56400
O90         O  0.68193275  0.92811392  0.50892941    -0.56400
O91         O  0.67650423  0.02604818  0.56577832    -0.55500
O92         O  0.79714335  0.87782290  0.23438610    -0.56800
C93         C  0.67080277  0.88869891  0.21487324     0.75900
O94         O  0.75283670  0.93913938  0.32113523    -0.57900
C95         C  0.82826881  0.90138504  0.24055227     0.75800
C96         C  0.76685964  0.96746402  0.12580661     0.78200
Cd97       Cd  0.74666007  0.93565885  0.22729331     1.37500
O98         O  0.70397395  0.87217869  0.23099913    -0.56800
O99         O  0.77564038  0.93124614  0.14184255    -0.55600
C100        C  0.73298300  0.97280835  0.32704623     0.78200
O101        O  0.74758001  0.99114668  0.15690541    -0.57900
O102        O  0.67274435  0.92692163  0.20248584    -0.56400
O103        O  0.82116415  0.94033962  0.24252887    -0.56400
O104        O  0.72134970  0.99142237  0.28659444    -0.55500
C105        C  0.61213261  0.19826025  0.47461229     0.87500
C106        C  0.60961420  0.19339759  0.53350275    -0.52700
C107        C  0.59653205  0.15507735  0.55030390     0.10500
C108        C  0.58684397  0.12519756  0.50736105     0.21400
C109        C  0.64051929  0.16186062  0.45692630    -0.53400
C110        C  0.62670934  0.12344590  0.47428193     0.10600
C111        C  0.56821931  0.18630635  0.45764288    -0.52900
C112        C  0.55501309  0.14808470  0.47511773     0.11100
H113        H  0.61625253  0.21817124  0.55948770     0.15700
H114        H  0.57571470  0.09425201  0.52170251     0.01400
H115        H  0.66883782  0.16611451  0.43408325     0.16000
H116        H  0.54817871  0.20798219  0.43739920     0.15800
C117        C  0.37588339  0.19068347  0.47003792     0.87500
C118        C  0.35132957  0.15033363  0.46428196    -0.52700
C119        C  0.37283925  0.11523368  0.47896727     0.10500
C120        C  0.41701996  0.12378423  0.49739970     0.21400
C121        C  0.38947265  0.18982147  0.52636601    -0.53400
C122        C  0.40986646  0.15434522  0.54092865     0.10600
C123        C  0.41630602  0.18371810  0.43923062    -0.52900
C124        C  0.43872813  0.14982458  0.45437646     0.11100
H125        H  0.31939640  0.14976197  0.45174410     0.15700
H126        H  0.43387536  0.09499948  0.50903123     0.01400
H127        H  0.38327958  0.21467236  0.55283237     0.16000
H128        H  0.42846187  0.20626998  0.41129311     0.15800
C129        C  0.61345447  0.31226759  0.49743028     0.87500
C130        C  0.63826593  0.35258681  0.48781106    -0.52700
C131        C  0.61745952  0.38786427  0.50319040     0.10500
C132        C  0.57390635  0.37966721  0.52618745     0.21400
C133        C  0.60176349  0.31327883  0.55478386    -0.53400
C134        C  0.58146096  0.34869495  0.56978616     0.10600
C135        C  0.57167450  0.31960650  0.47080935    -0.52900
C136        C  0.55061282  0.35452619  0.48687856     0.11100
H137        H  0.67018762  0.35289307  0.47334185     0.15700
H138        H  0.55717806  0.40822060  0.53896055     0.01400
H139        H  0.60909237  0.28806738  0.58127715     0.16000
H140        H  0.55851685  0.29766072  0.44487429     0.15800
C141        C  0.36776688  0.29736870  0.49714675     0.87500
C142        C  0.37656123  0.30201185  0.55432438    -0.52700
C143        C  0.40025856  0.33592352  0.56576713     0.10500
C144        C  0.41234040  0.36257077  0.51842430     0.21400
C145        C  0.34755695  0.33868570  0.48180620    -0.53400
C146        C  0.37059703  0.37293055  0.49345042     0.10600
C147        C  0.41113015  0.29809299  0.47107119    -0.52900
C148        C  0.43455773  0.33188721  0.48195870     0.11100
H149        H  0.36382964  0.28043416  0.58275450     0.15700
H150        H  0.43037601  0.39058480  0.52818970     0.01400
H151        H  0.31656025  0.34071889  0.46634592     0.16000
H152        H  0.42376921  0.27287676  0.44842198     0.15800
C153        C  0.43662170  0.36498187  0.79065833     0.87500
C154        C  0.43919281  0.36038202  0.73185643    -0.52700
C155        C  0.40835529  0.33575432  0.71332385     0.10500
C156        C  0.37744849  0.31938275  0.75416050     0.21400
C157        C  0.39234775  0.38194194  0.80039282    -0.53400
C158        C  0.36146318  0.35892491  0.78029678     0.10600
C159        C  0.43515772  0.32050293  0.81272321    -0.52900
C160        C  0.40489304  0.29613922  0.79309689     0.11100
H161        H  0.46180103  0.37557541  0.70697900     0.15700
H162        H  0.35204317  0.30100603  0.73787351     0.01400
H163        H  0.38611063  0.41182416  0.81813567     0.16000
H164        H  0.45692928  0.30870282  0.84039301     0.15800
C165        C  0.54469246  0.36647065  0.79567496     0.87500
C166        C  0.58676478  0.38443703  0.81170834    -0.52700
C167        C  0.62081797  0.36579084  0.79035517     0.10500
C168        C  0.61015113  0.32926849  0.75648668     0.21400
C169        C  0.54749236  0.36867132  0.73688993    -0.53400
C170        C  0.58137060  0.34818008  0.71659353     0.10600
C171        C  0.54765234  0.31957077  0.80992078    -0.52900
C172        C  0.58204976  0.30012753  0.78866107     0.11100
H173        H  0.58946996  0.41238675  0.83434733     0.15700
H174        H  0.63802643  0.31359760  0.73960688     0.01400
H175        H  0.52637985  0.38668805  0.71393772     0.16000
H176        H  0.52517323  0.30346394  0.83428944     0.15800
C177        C  0.42974300  0.11521985  0.76587847     0.87500
C178        C  0.38809835  0.09191234  0.77104153    -0.52700
C179        C  0.35539036  0.11358502  0.75038183     0.10500
C180        C  0.36730808  0.15624177  0.72722615     0.21400
C181        C  0.43449559  0.12498901  0.70786143    -0.53400
C182        C  0.40171580  0.14641723  0.68796743     0.10600
C183        C  0.42103031  0.15787158  0.79020080    -0.52900
C184        C  0.38898308  0.17968773  0.76932278     0.11100
H185        H  0.38502809  0.06090336  0.78804675     0.15700
H186        H  0.34080253  0.17374020  0.71062355     0.01400
H187        H  0.46055935  0.11534152  0.68437564     0.16000
H188        H  0.43927100  0.16981644  0.82087874     0.15800
C189        C  0.53914368  0.11300609  0.76036098     0.87500
C190        C  0.54629623  0.12709151  0.70446983    -0.52700
C191        C  0.57906641  0.15329660  0.69622641     0.10500
C192        C  0.60171790  0.16398602  0.74490789     0.21400
C193        C  0.58129528  0.09420014  0.77533329    -0.53400
C194        C  0.61443512  0.12058448  0.76603831     0.10600
C195        C  0.53546751  0.15390596  0.79002820    -0.52900
C196        C  0.56736874  0.18104521  0.78161743     0.11100
H197        H  0.52787205  0.11603025  0.67343581     0.15700
H198        H  0.62845655  0.18504559  0.73726105     0.01400
H199        H  0.58500775  0.06155716  0.78616331     0.16000
H200        H  0.50873769  0.16246129  0.81337262     0.15800
C201        C  0.36827541  0.79871743  0.52529585     0.87500
C202        C  0.34904201  0.84189481  0.53653806    -0.52700
C203        C  0.37184348  0.87485591  0.51826554     0.10500
C204        C  0.41288657  0.86193438  0.49252638     0.21400
C205        C  0.37545698  0.80007375  0.46713166    -0.53400
C206        C  0.39955049  0.83287020  0.45027696     0.10600
C207        C  0.41148364  0.80023397  0.54848899    -0.52900
C208        C  0.43505983  0.83331510  0.53126335     0.11100
H209        H  0.31813492  0.84601437  0.55342869     0.15700
H210        H  0.43066571  0.88926170  0.47781525     0.01400
H211        H  0.36042112  0.77925284  0.44157573     0.16000
H212        H  0.42281616  0.77683459  0.57521864     0.15800
C213        C  0.37271889  0.69028528  0.52294836     0.87500
C214        C  0.38540670  0.69226258  0.46600516    -0.52700
C215        C  0.40984811  0.65944312  0.45044200     0.10500
C216        C  0.41923630  0.62748319  0.49347370     0.21400
C217        C  0.35229059  0.64696580  0.52900759    -0.53400
C218        C  0.37581040  0.61419347  0.51312119     0.10600
C219        C  0.41345908  0.68558143  0.55220996    -0.52900
C220        C  0.43797062  0.65235714  0.53761588     0.11100
H221        H  0.37357643  0.71504392  0.43947356     0.15700
H222        H  0.43898437  0.60094224  0.48061156     0.01400
H223        H  0.32045461  0.64254251  0.54285877     0.16000
H224        H  0.41857091  0.70216569  0.58732746     0.15800
C225        C  0.61334130  0.80829654  0.51222663     0.87500
C226        C  0.60776094  0.81024595  0.45412538    -0.52700
C227        C  0.59047173  0.84639135  0.43632382     0.10500
C228        C  0.58016692  0.87759910  0.47814362     0.21400
C229        C  0.63931830  0.84739934  0.52302260    -0.53400
C230        C  0.62186224  0.88382612  0.50455079     0.10600
C231        C  0.56956231  0.81761827  0.53435975    -0.52900
C232        C  0.55192468  0.85342916  0.51608202     0.11100
H233        H  0.61632350  0.78471323  0.42929705     0.15700
H234        H  0.56589880  0.90684253  0.46314275     0.01400
H235        H  0.66970187  0.84604356  0.54017302     0.16000
H236        H  0.55194052  0.79514299  0.55693888     0.15800
C237        C  0.59308259  0.69788039  0.54018930     0.87500
C238        C  0.62201988  0.66011542  0.54772944    -0.52700
C239        C  0.60560614  0.62324443  0.53182613     0.10500
C240        C  0.56157885  0.62763211  0.51040938     0.21400
C241        C  0.58264114  0.69743464  0.48301582    -0.53400
C242        C  0.56691748  0.66042648  0.46761586     0.10600
C243        C  0.55196321  0.68555402  0.56797745    -0.52900
C244        C  0.53509744  0.64919041  0.55187416     0.11100
H245        H  0.65309601  0.66261241  0.56268892     0.15700
H246        H  0.54826235  0.59772077  0.49760166     0.01400
H247        H  0.58753341  0.72345162  0.45677789     0.16000
H248        H  0.53858110  0.70284332  0.59974824     0.15800
C249        C  0.44297984  0.61697416  0.22895327     0.87500
C250        C  0.44204769  0.62818108  0.28620647    -0.52700
C251        C  0.40858394  0.65143296  0.30189816     0.10500
C252        C  0.37858720  0.66137482  0.25851885     0.21400
C253        C  0.40134551  0.59504369  0.22169652    -0.53400
C254        C  0.36745456  0.61798269  0.23782206     0.10600
C255        C  0.43863816  0.65892950  0.20066180    -0.52900
C256        C  0.40594052  0.68279338  0.21629189     0.11100
H257        H  0.46462254  0.61715212  0.31240606     0.15700
H258        H  0.35094035  0.67954478  0.27125110     0.01400
H259        H  0.39906456  0.56349618  0.20753042     0.16000
H260        H  0.46140959  0.67028686  0.17250165     0.15800
C261        C  0.54942411  0.60887100  0.25188113     0.87500
C262        C  0.59252352  0.58872928  0.24526831    -0.52700
C263        C  0.62452678  0.61401142  0.25968155     0.10500
C264        C  0.61039663  0.65721556  0.27842059     0.21400
C265        C  0.54807214  0.62150989  0.30803065    -0.53400
C266        C  0.57902679  0.64740981  0.32208607     0.10600
C267        C  0.55250084  0.65030195  0.22131902    -0.52900
C268        C  0.58426650  0.67553672  0.23484567     0.11100
H269        H  0.59711863  0.55686918  0.23276178     0.15700
H270        H  0.63648640  0.67691473  0.29053053     0.01400
H271        H  0.52606214  0.60802622  0.33506686     0.16000
H272        H  0.53115316  0.65977767  0.19194442     0.15800
C273        C  0.44199091  0.86219189  0.22872454     0.87500
C274        C  0.40442754  0.88907496  0.21399900    -0.52700
C275        C  0.36709889  0.87280513  0.23063142     0.10500
C276        C  0.37070508  0.83125367  0.26013111     0.21400
C277        C  0.43731093  0.85646752  0.28701560    -0.53400
C278        C  0.40010552  0.84019864  0.30341537     0.10600
C279        C  0.43292854  0.81799536  0.20833061    -0.52900
C280        C  0.39550474  0.80172092  0.22571468     0.11100
H281        H  0.40729849  0.91932751  0.19493418     0.15700
H282        H  0.34035412  0.81832239  0.27390455     0.01400
H283        H  0.46203349  0.86386003  0.31262095     0.16000
H284        H  0.45588468  0.79953524  0.18782207     0.15800
C285        C  0.55670952  0.85282347  0.21131170     0.87500
C286        C  0.55760057  0.85354112  0.27044449    -0.52700
C287        C  0.59426300  0.84004335  0.29013756     0.10500
C288        C  0.62625721  0.82639176  0.24993467     0.21400
C289        C  0.59489554  0.87889222  0.19388819    -0.53400
C290        C  0.63141790  0.86498540  0.21487632     0.10600
C291        C  0.56817619  0.80763396  0.19836697    -0.52900
C292        C  0.60386404  0.79316249  0.21977847     0.11100
H293        H  0.53157081  0.86261024  0.29464748     0.15700
H294        H  0.65574548  0.81495070  0.26660173     0.01400
H295        H  0.59279907  0.90699189  0.17032300     0.16000
H296        H  0.54655209  0.78779459  0.17911963     0.15800
O297        O  0.19084741  0.36136399  0.75911665    -0.56800
C298        C  0.31971573  0.37728550  0.77302425     0.75900
O299        O  0.24339914  0.42462992  0.66064791    -0.57900
C300        C  0.16099307  0.38558422  0.74765009     0.75800
C301        C  0.22831775  0.46018523  0.85456098     0.78200
Cd302      Cd  0.24290438  0.42057337  0.75594357     1.37500
O303        O  0.28917747  0.35707996  0.75607191    -0.56800
O304        O  0.21776873  0.47814343  0.81320895    -0.55600
C305        C  0.26340972  0.45831988  0.65541993     0.78200
O306        O  0.24702495  0.42568580  0.85013330    -0.57900
O307        O  0.31365864  0.41555524  0.78164504    -0.56400
O308        O  0.16997236  0.42361958  0.74020986    -0.56400
O309        O  0.27284036  0.47615525  0.69644022    -0.55500
O310        O  0.37731693  0.53978530  0.49674776    -0.56800
C311        C  0.35283921  0.41519269  0.49258261     0.75900
O312        O  0.25784439  0.46644281  0.56400430    -0.57900
C313        C  0.35712535  0.57210159  0.51004756     0.75800
C314        C  0.27367971  0.51087939  0.40602658     0.78200
Cd315      Cd  0.31335315  0.49404165  0.50308525     1.37500
O316        O  0.37433136  0.44727231  0.50161960    -0.56800
O317        O  0.25835003  0.52478457  0.44752463    -0.55600
C318        C  0.27740350  0.47391873  0.60434482     0.78200
O319        O  0.30482459  0.48702291  0.40983495    -0.57900
O320        O  0.31441180  0.42063188  0.48570560    -0.56400
O321        O  0.31871384  0.56722698  0.51993304    -0.56400
O322        O  0.31128927  0.49332746  0.59821733    -0.55500
O323        O  0.11829313  0.45656844  0.00766290    -0.56800
C324        C  0.13877353  0.57684875  0.99268795     0.75900
O325        O  0.18593172  0.49022256  0.09949224    -0.57900
C326        C  0.13531612  0.42241889  0.02108754     0.75800
C327        C  0.21650330  0.47641022  0.90539433     0.78200
Cd328      Cd  0.18171683  0.49800644  0.00557371     1.37500
O329        O  0.12029460  0.54418342  0.00908606    -0.56800
O330        O  0.18577521  0.50062504  0.91096474    -0.55600
C331        C  0.21632497  0.51430997  0.10500816     0.78200
O332        O  0.23425679  0.46469799  0.94605515    -0.57900
O333        O  0.17704759  0.57305868  0.98119594    -0.56400
O334        O  0.17404797  0.42318694  0.02830378    -0.56400
O335        O  0.23373020  0.52841958  0.06423187    -0.55500
O336        O  0.20253761  0.62714970  0.25555310    -0.56800
C337        C  0.32508752  0.60016219  0.24239805     0.75900
O338        O  0.26776438  0.50536545  0.31487290    -0.57900
C339        C  0.16800388  0.61013071  0.26736751     0.75800
C340        C  0.22822154  0.52777003  0.15623477     0.78200
Cd341      Cd  0.24391682  0.56256811  0.25592437     1.37500
O342        O  0.29363166  0.62191843  0.25537701    -0.56800
O343        O  0.24805411  0.56121585  0.16178027    -0.55600
C344        C  0.25910938  0.52489371  0.35558251     0.78200
O345        O  0.21686254  0.50844815  0.19698322    -0.57900
O346        O  0.31872057  0.56178477  0.23523736    -0.56400
O347        O  0.16846005  0.57100675  0.27495287    -0.56400
O348        O  0.24035991  0.55931848  0.35031028    -0.55500
C349        C  0.86627478  0.69276946  0.97767312     0.87500
C350        C  0.84108564  0.65271792  0.97122774    -0.52700
C351        C  0.86218661  0.61705206  0.98501063     0.10500
C352        C  0.90679273  0.62477709  0.00258139     0.21400
C353        C  0.87982865  0.69047697  0.03349910    -0.53400
C354        C  0.90035634  0.65476045  0.04662189     0.10600
C355        C  0.90695057  0.68602627  0.94644116    -0.52900
C356        C  0.92883332  0.65124271  0.96037740     0.11100
H357        H  0.80853304  0.65289866  0.96113931     0.15700
H358        H  0.92340619  0.59567009  0.01355451     0.01400
H359        H  0.87305762  0.71484296  0.06074575     0.16000
H360        H  0.92025835  0.70908671  0.92016245     0.15800
C361        C  0.87700083  0.80329756  0.95346716     0.87500
C362        C  0.88349231  0.80730905  0.01190994    -0.52700
C363        C  0.90420677  0.84271166  0.02495236     0.10500
C364        C  0.91678777  0.87033047  0.97892283     0.21400
C365        C  0.85485528  0.84399816  0.93810060    -0.53400
C366        C  0.87551015  0.87925598  0.95213291     0.10600
C367        C  0.92092096  0.80710579  0.92973919    -0.52900
C368        C  0.94231460  0.84129669  0.94382869     0.11100
H369        H  0.87302551  0.78453310  0.04017174     0.15700
H370        H  0.93322372  0.89918587  0.98946456     0.01400
H371        H  0.82432510  0.84473999  0.92126557     0.16000
H372        H  0.93547540  0.78255498  0.90735021     0.15800
C373        C  0.11947773  0.80564988  0.98325177     0.87500
C374        C  0.14482864  0.84530462  0.96909209    -0.52700
C375        C  0.12594776  0.88169263  0.98516835     0.10500
C376        C  0.08387946  0.87494320  0.01264375     0.21400
C377        C  0.11253254  0.80903524  0.04126508    -0.53400
C378        C  0.09380927  0.84490462  0.05649144     0.10600
C379        C  0.07587718  0.81349348  0.96101729    -0.52900
C380        C  0.05740545  0.84983467  0.97660261     0.11100
H381        H  0.17565581  0.84442939  0.95133109     0.15700
H382        H  0.06857922  0.90416755  0.02575604     0.01400
H383        H  0.12299015  0.78560861  0.06816808     0.16000
H384        H  0.05945287  0.79088942  0.93897202     0.15800
C385        C  0.10603874  0.69212083  0.97430731     0.87500
C386        C  0.10152510  0.69476554  0.03302581    -0.52700
C387        C  0.08597647  0.65970554  0.05649416     0.10500
C388        C  0.07586443  0.62503445  0.01941442     0.21400
C389        C  0.13278149  0.65274070  0.96551707    -0.53400
C390        C  0.11691895  0.61753907  0.98958224     0.10600
C391        C  0.06216612  0.68012053  0.95742211    -0.52900
C392        C  0.04612738  0.64525908  0.98131730     0.11100
H393        H  0.10901495  0.72190940  0.05434551     0.15700
H394        H  0.06296589  0.59670029  0.03896048     0.01400
H395        H  0.16202358  0.65300115  0.94392966     0.16000
H396        H  0.04428148  0.69993995  0.93205024     0.15800
C397        C  0.05346449  0.88521525  0.27069382     0.87500
C398        C  0.09329113  0.91157885  0.27375828    -0.52700
C399        C  0.12886095  0.88990906  0.26045402     0.10500
C400        C  0.12131558  0.84451853  0.24567484     0.21400
C401        C  0.05458989  0.86817689  0.21603663    -0.53400
C402        C  0.09036737  0.84820118  0.20268833     0.10600
C403        C  0.06185184  0.84653889  0.30450811    -0.52900
C404        C  0.09667459  0.82455648  0.29081877     0.11100
H405        H  0.09320714  0.94430490  0.28383073     0.15700
H406        H  0.15026297  0.82784325  0.23432940     0.01400
H407        H  0.02952552  0.87144606  0.18957138     0.16000
H408        H  0.03993331  0.83522456  0.33373206     0.15800
C409        C  0.94665082  0.88906685  0.23987326     0.87500
C410        C  0.94332906  0.87733822  0.18307934    -0.52700
C411        C  0.91005519  0.85254136  0.17266646     0.10500
C412        C  0.88315146  0.84167284  0.22024038     0.21400
C413        C  0.90456490  0.90916899  0.25294006    -0.53400
C414        C  0.87115763  0.88468307  0.24210201     0.10600
C415        C  0.94637360  0.84674234  0.26856383    -0.52900
C416        C  0.91376372  0.82163180  0.25823067     0.11100
H417        H  0.96564070  0.88785979  0.15402372     0.15700
H418        H  0.85583791  0.82228399  0.21154208     0.01400
H419        H  0.90147235  0.94101246  0.26613020     0.16000
H420        H  0.97140143  0.83581257  0.29240552     0.15800
C421        C  0.05573663  0.65136589  0.28322152     0.87500
C422        C  0.05460464  0.65769382  0.22460347    -0.52700
C423        C  0.09140471  0.67032225  0.20270967     0.10500
C424        C  0.12566337  0.67696635  0.24123172     0.21400
C425        C  0.09232487  0.62111160  0.29183607    -0.53400
C426        C  0.12909070  0.63476002  0.26962087     0.10600
C427        C  0.07064280  0.69356501  0.30257110    -0.52900
C428        C  0.10687669  0.70749367  0.27999233     0.11100
H429        H  0.02706068  0.65332222  0.20236276     0.15700
H430        H  0.15531723  0.68792675  0.22302578     0.01400
H431        H  0.08921771  0.59146165  0.31222618     0.16000
H432        H  0.05140707  0.71238557  0.32784375     0.15800
C433        C  0.94357589  0.63823563  0.26731354     0.87500
C434        C  0.90481491  0.61623808  0.29009129    -0.52700
C435        C  0.86811580  0.63274160  0.27303748     0.10500
C436        C  0.87367595  0.66980313  0.23572161     0.21400
C437        C  0.93806075  0.63617153  0.20918994    -0.53400
C438        C  0.90161596  0.65288818  0.19280585     0.10600
C439        C  0.93745610  0.68520603  0.27895159    -0.52900
C440        C  0.90077830  0.70171891  0.26192809     0.11100
H441        H  0.90636543  0.58832457  0.31408530     0.15700
H442        H  0.84394784  0.68310722  0.22184787     0.01400
H443        H  0.96157218  0.62333458  0.18353616     0.16000
H444        H  0.96171653  0.70436175  0.29413033     0.15800
C445        C  0.86268754  0.19696983  0.99899856     0.87500
C446        C  0.87046224  0.19537141  0.94091271    -0.52700
C447        C  0.89553202  0.16335324  0.92509030     0.10500
C448        C  0.91111988  0.13573652  0.96916732     0.21400
C449        C  0.84570154  0.15373150  0.01331875    -0.53400
C450        C  0.87049969  0.12140597  0.99691903     0.10600
C451        C  0.90655886  0.19789869  0.02113637    -0.52900
C452        C  0.93214650  0.16639672  0.00551490     0.11100
H453        H  0.85712415  0.21799439  0.91467716     0.15700
H454        H  0.93116422  0.10953222  0.95618560     0.01400
H455        H  0.81498301  0.14917306  0.03059495     0.16000
H456        H  0.91763694  0.22256283  0.04509865     0.15800
C457        C  0.11453275  0.20023071  0.01241840     0.87500
C458        C  0.13626589  0.15942730  0.02919283    -0.52700
C459        C  0.12121135  0.12459153  0.00587857     0.10500
C460        C  0.08599453  0.13383932  0.96871976     0.21400
C461        C  0.11981002  0.20060937  0.95406126    -0.53400
C462        C  0.10453361  0.16651765  0.93121423     0.10600
C463        C  0.06733725  0.19246288  0.02179952    -0.52900
C464        C  0.05241104  0.15770690  0.99868745     0.11100
H465        H  0.16277335  0.15855269  0.05410306     0.15700
H466        H  0.07428914  0.10534513  0.95047575     0.01400
H467        H  0.13368454  0.22631791  0.93212445     0.16000
H468        H  0.04694976  0.21462917  0.04060501     0.15800
C469        C  0.86450540  0.30249711  0.03264602     0.87500
C470        C  0.83721874  0.34158855  0.03949159    -0.52700
C471        C  0.85751286  0.37803369  0.02648613     0.10500
C472        C  0.90278318  0.37193571  0.00807318     0.21400
C473        C  0.88059701  0.30530895  0.97646248    -0.53400
C474        C  0.89981910  0.34189697  0.96336723     0.10600
C475        C  0.90301497  0.31086707  0.06418865    -0.52900
C476        C  0.92349628  0.34663236  0.05116415     0.11100
H477        H  0.80492707  0.34048318  0.05249314     0.15700
H478        H  0.91846310  0.40166466  0.99734304     0.01400
H479        H  0.87717878  0.28070903  0.94932051     0.16000
H480        H  0.91478197  0.28888181  0.09247791     0.15800
C481        C  0.09489177  0.30997279  0.03838579     0.87500
C482        C  0.08656990  0.30983161  0.98029527    -0.52700
C483        C  0.07314008  0.34731750  0.96122879     0.10500
C484        C  0.06823780  0.38092452  0.00148524     0.21400
C485        C  0.12536347  0.34628950  0.04515114    -0.53400
C486        C  0.11106478  0.38354347  0.02547011     0.10600
C487        C  0.05351329  0.32500590  0.06241555    -0.52900
C488        C  0.03899031  0.36178948  0.04213405     0.11100
H489        H  0.08992411  0.28249907  0.95684511     0.15700
H490        H  0.05679981  0.41115621  0.98566246     0.01400
H491        H  0.15561456  0.34262573  0.06222662     0.16000
H492        H  0.03536071  0.30526822  0.08844984     0.15800
C493        C  0.03621971  0.13111493  0.71633468     0.87500
C494        C  0.07693713  0.10971998  0.69822147    -0.52700
C495        C  0.11189164  0.12560588  0.72006401     0.10500
C496        C  0.10281485  0.16144749  0.75685165     0.21400
C497        C  0.03731235  0.12658614  0.77475202    -0.53400
C498        C  0.07161898  0.14264416  0.79599325     0.10600
C499        C  0.04289058  0.17843251  0.70596905    -0.52900
C500        C  0.07769533  0.19430653  0.72754426     0.11100
H501        H  0.07765532  0.08253516  0.67401787     0.15700
H502        H  0.13140628  0.17414865  0.77333812     0.01400
H503        H  0.01320316  0.11127955  0.79787309     0.16000
H504        H  0.02058414  0.19799048  0.68660673     0.15800
C505        C  0.92673358  0.15028796  0.69675801     0.87500
C506        C  0.92568126  0.14877863  0.75600635    -0.52700
C507        C  0.88990300  0.16415121  0.77766835     0.10500
C508        C  0.85870069  0.18000194  0.73870772     0.21400
C509        C  0.88719055  0.12703344  0.68174922    -0.53400
C510        C  0.85146163  0.14252119  0.70432913     0.10600
C511        C  0.91811792  0.19644884  0.68360908    -0.52900
C512        C  0.88304428  0.21242827  0.70671449     0.11100
H513        H  0.95107606  0.13771653  0.77865960     0.15700
H514        H  0.82978043  0.19273871  0.75667599     0.01400
H515        H  0.88783106  0.09915523  0.65873254     0.16000
H516        H  0.94030435  0.21521150  0.66164809     0.15800
C517        C  0.93731082  0.39454582  0.74586850     0.87500
C518        C  0.89349869  0.41378656  0.74329345    -0.52700
C519        C  0.86208560  0.38712449  0.75754612     0.10500
C520        C  0.87738381  0.34320360  0.77260219     0.21400
C521        C  0.93931409  0.37834993  0.80137601    -0.53400
C522        C  0.90801450  0.35141052  0.81547751     0.10600
C523        C  0.93466001  0.35631823  0.71219266    -0.52900
C524        C  0.90437617  0.32868874  0.72650587     0.11100
H525        H  0.88785671  0.44620678  0.73265461     0.15700
H526        H  0.85177181  0.32202161  0.78485019     0.01400
H527        H  0.96033814  0.39052047  0.82854023     0.16000
H528        H  0.95358651  0.35224357  0.67796041     0.15800
C529        C  0.04262259  0.38691006  0.74074220     0.87500
C530        C  0.04261779  0.37798330  0.79845580    -0.52700
C531        C  0.07110750  0.34859058  0.81361688     0.10500
C532        C  0.09851947  0.33212895  0.76952243     0.21400
C533        C  0.08767792  0.39978474  0.72869639    -0.53400
C534        C  0.11714109  0.37206601  0.74461491     0.10600
C535        C  0.03888821  0.34436191  0.71534475    -0.52900
C536        C  0.06726215  0.31517792  0.73086582     0.11100
H537        H  0.02462056  0.39639578  0.82488710     0.15700
H538        H  0.12259826  0.30983444  0.78254722     0.01400
H539        H  0.09580492  0.43011561  0.71222343     0.16000
H540        H  0.01655708  0.33742767  0.68673601     0.15800
O541        O  0.78832141  0.37680414  0.77103204    -0.56800
C542        C  0.66126919  0.38722327  0.78738562     0.75900
O543        O  0.75704757  0.49078565  0.83288826    -0.57900
C544        C  0.81865079  0.40156581  0.76327866     0.75800
C545        C  0.71952359  0.47277289  0.67607898     0.78200
Cd546      Cd  0.73608970  0.43449553  0.77485649     1.37500
O547        O  0.69477814  0.36902906  0.77373135    -0.56800
O548        O  0.70570848  0.48905357  0.71697104    -0.55600
C549        C  0.74744893  0.47084582  0.87374453     0.78200
O550        O  0.74215935  0.44079472  0.68110147    -0.57900
O551        O  0.66335806  0.42590273  0.79587380    -0.56400
O552        O  0.81024198  0.44014141  0.76144343    -0.56400
O553        O  0.72987799  0.43604201  0.86884890    -0.55500
O554        O  0.61632430  0.46131585  0.51832211    -0.56800
C555        C  0.62945111  0.58367723  0.52997598     0.75900
O556        O  0.72947684  0.48055476  0.58524715    -0.57900
C557        C  0.63734722  0.42884818  0.50770276     0.75800
C558        C  0.71931302  0.52250293  0.42751820     0.78200
Cd559      Cd  0.67680164  0.50704589  0.52409672     1.37500
O560        O  0.61248081  0.54940876  0.51901205    -0.56800
O561        O  0.73201536  0.53907124  0.46795313    -0.55600
C562        C  0.70765958  0.48790384  0.62510097     0.78200
O563        O  0.68970560  0.49701087  0.43260407    -0.57900
O564        O  0.66808302  0.58246690  0.53813412    -0.56400
O565        O  0.67639646  0.43287207  0.50384907    -0.56400
O566        O  0.67352235  0.50651787  0.61850990    -0.55500
O567        O  0.85863384  0.45234284  0.01600775    -0.56800
C568        C  0.84119963  0.57677040  0.99538636     0.75900
O569        O  0.74294132  0.47245635  0.96560214    -0.57900
C570        C  0.83772260  0.41956271  0.02608682     0.75800
C571        C  0.77248698  0.51755299  0.12336542     0.78200
Cd572      Cd  0.79924457  0.49993655  0.01973489     1.37500
O573        O  0.86148419  0.54360596  0.00533544    -0.56800
O574        O  0.80577451  0.49808005  0.11324126    -0.55600
C575        C  0.76038952  0.48479085  0.92399720     0.78200
O576        O  0.74967503  0.52695102  0.08586687    -0.57900
O577        O  0.80190748  0.57419729  0.99725202    -0.56400
O578        O  0.79906810  0.42413952  0.03437509    -0.56400
O579        O  0.79247866  0.50690071  0.92754343    -0.55500
O580        O  0.69784418  0.62400206  0.27089522    -0.56800
C581        C  0.82763630  0.61141892  0.27828225     0.75900
O582        O  0.73156552  0.51175349  0.33804533    -0.57900
C583        C  0.66779263  0.59926528  0.26366085     0.75800
C584        C  0.76281180  0.53145410  0.17550530     0.78200
Cd585      Cd  0.75025405  0.56741599  0.27498083     1.37500
O586        O  0.79389074  0.63005799  0.26777316    -0.56800
O587        O  0.74177519  0.56424059  0.18266046    -0.55600
C588        C  0.73470953  0.53512320  0.37648715     0.78200
O589        O  0.77705457  0.51326817  0.21497756    -0.57900
O590        O  0.82522325  0.57293696  0.28964212    -0.56400
O591        O  0.67633201  0.56076047  0.26159582    -0.56400
O592        O  0.74822965  0.57161970  0.36817588    -0.55500
C593        C  0.97067726  0.42558303  0.72853180    -0.15400
C594        C  0.01269191  0.42164679  0.72419655    -0.30500
H595        H  0.95885827  0.45566837  0.71542221     0.13600
H596        H  0.02771391  0.44927910  0.70775565     0.14200
C597        C  0.87530797  0.25761431  0.71532675    -0.15400
C598        C  0.90284326  0.28741122  0.70183297    -0.30500
H599        H  0.84904609  0.26519498  0.74013782     0.13600
H600        H  0.92857419  0.28025022  0.67595644     0.14200
C601        C  0.99547518  0.11253420  0.69781969    -0.15400
C602        C  0.96769437  0.13559197  0.67165154    -0.30500
H603        H  0.98248346  0.08790106  0.72235050     0.13600
H604        H  0.98051338  0.15647734  0.64230408     0.14200
C605        C  0.08746273  0.23958499  0.73244515    -0.15400
C606        C  0.06309615  0.27082820  0.71531228    -0.30500
H607        H  0.11413680  0.24675234  0.75509481     0.13600
H608        H  0.03665960  0.26371396  0.69212037     0.14200
C609        C  0.06288471  0.35672737  0.90751587    -0.15400
C610        C  0.07816574  0.33540683  0.86747219    -0.30500
H611        H  0.04464971  0.38473390  0.90141868     0.13600
H612        H  0.09864242  0.30892534  0.87388797     0.14200
C613        C  0.91432614  0.35359000  0.91064024    -0.15400
C614        C  0.89943182  0.33569229  0.86848989    -0.30500
H615        H  0.93468857  0.38037693  0.90696252     0.13600
H616        H  0.87654786  0.31104189  0.87250906     0.14200
C617        C  0.99447996  0.37379657  0.04235947    -0.15400
C618        C  0.96554392  0.35361841  0.07070866    -0.30500
H619        H  0.98518133  0.39358971  0.01064050     0.13600
H620        H  0.97478305  0.33437263  0.10300419     0.14200
C621        C  0.10418508  0.16423437  0.87531329    -0.15400
C622        C  0.07631848  0.14116791  0.85168037    -0.30500
H623        H  0.12454289  0.18531840  0.85386920     0.13600
H624        H  0.05371333  0.12295247  0.87380718     0.14200
C625        C  0.13176375  0.24115555  0.03263908    -0.15400
C626        C  0.10749741  0.26729947  0.05997535    -0.30500
H627        H  0.15535842  0.25600534  0.00812769     0.13600
H628        H  0.08668516  0.25352583  0.08878010     0.14200
C629        C  0.90593201  0.15525020  0.87060061    -0.15400
C630        C  0.88104296  0.16863840  0.83304129    -0.30500
H631        H  0.93378106  0.13728748  0.86202014     0.13600
H632        H  0.85189197  0.18397015  0.84282317     0.14200
C633        C  0.97675716  0.16707383  0.01939998    -0.15400
C634        C  0.00734893  0.14839899  0.99224967    -0.30500
H635        H  0.98473919  0.18727057  0.05048288     0.13600
H636        H  0.99952790  0.12801244  0.96128827     0.14200
C637        C  0.83390863  0.23341627  0.01282076    -0.15400
C638        C  0.84451494  0.26090376  0.04845702    -0.30500
H639        H  0.81714870  0.24671422  0.98080517     0.13600
H640        H  0.85619149  0.24709990  0.08353847     0.14200
C641        C  0.98536710  0.61863671  0.28116823    -0.15400
C642        C  0.01372026  0.63953986  0.30761420    -0.30500
H643        H  0.99762861  0.59600421  0.25415216     0.13600
H644        H  0.00201558  0.65976200  0.33759552     0.14200
C645        C  0.91457754  0.77726735  0.27609456    -0.15400
C646        C  0.89156834  0.74717210  0.25582904    -0.30500
H647        H  0.93837772  0.76870231  0.30303779     0.13600
H648        H  0.86734099  0.75553526  0.22946301     0.14200
C649        C  0.10161288  0.78083085  0.30887463    -0.15400
C650        C  0.11970078  0.75187491  0.27904253    -0.30500
H651        H  0.08292533  0.77122631  0.34201205     0.13600
H652        H  0.13892344  0.76131246  0.24638552     0.14200
C653        C  0.98446925  0.91672218  0.24902311    -0.15400
C654        C  0.01231070  0.90668855  0.28523969    -0.30500
H655        H  0.99731623  0.93174200  0.21463805     0.13600
H656        H  0.99903701  0.89658499  0.32192274     0.14200
C657        C  0.07797451  0.65507032  0.11227041    -0.15400
C658        C  0.09846023  0.67696099  0.14707476    -0.30500
H659        H  0.05612623  0.63107160  0.12486425     0.13600
H660        H  0.12322270  0.69807978  0.13498796     0.14200
C661        C  0.08438492  0.85547838  0.10996144    -0.15400
C662        C  0.09997803  0.83469963  0.15031889    -0.30500
H663        H  0.06506546  0.88290932  0.11584789     0.13600
H664        H  0.12244026  0.80970565  0.14553948     0.14200
C665        C  0.14000707  0.76320885  0.97246219    -0.15400
C666        C  0.12067575  0.73259857  0.94726423    -0.30500
H667        H  0.16295816  0.75336591  0.00006598     0.13600
H668        H  0.10232938  0.74223321  0.91491192     0.14200
C669        C  0.91500619  0.85520617  0.07748425    -0.15400
C670        C  0.89957578  0.83748114  0.12090165    -0.30500
H671        H  0.93545773  0.88185836  0.07973128     0.13600
H672        H  0.87705841  0.81249417  0.11903564     0.14200
C673        C  0.98824143  0.84175723  0.93699612    -0.15400
C674        C  0.01282218  0.86045751  0.97035536    -0.30500
H675        H  0.00187626  0.82098396  0.90882422     0.13600
H676        H  0.99936793  0.88127270  0.99850219     0.14200
C677        C  0.88995032  0.65816550  0.13908134    -0.15400
C678        C  0.91285070  0.64469863  0.09909970    -0.30500
H679        H  0.86111963  0.67492043  0.13244080     0.13600
H680        H  0.94008999  0.62519789  0.10414339     0.14200
C681        C  0.97410745  0.64928042  0.94795780    -0.15400
C682        C  0.00145302  0.63352646  0.98136355    -0.30500
H683        H  0.98528750  0.66740944  0.91508847     0.13600
H684        H  0.99035558  0.61548222  0.01429055     0.14200
C685        C  0.84282912  0.73373803  0.96893162    -0.15400
C686        C  0.85683541  0.76312608  0.93560396    -0.30500
H687        H  0.82456962  0.74443603  0.00166698     0.13600
H688        H  0.86833030  0.75227325  0.89879115     0.14200
C689        C  0.48424055  0.88223958  0.21636408    -0.15400
C690        C  0.51454864  0.86381288  0.18836983    -0.30500
H691        H  0.49341563  0.90650493  0.24230385     0.13600
H692        H  0.50458738  0.84353374  0.15827830     0.14200
C693        C  0.58863271  0.71766323  0.21113564    -0.15400
C694        C  0.61175001  0.74812914  0.23056646    -0.30500
H695        H  0.56825949  0.72464707  0.17974025     0.13600
H696        H  0.63305178  0.74105062  0.26094841     0.14200
C697        C  0.40521114  0.72759299  0.20052226    -0.15400
C698        C  0.38476157  0.75658245  0.22747340    -0.30500
H699        H  0.42703900  0.73750611  0.17050085     0.13600
H700        H  0.36250573  0.74693253  0.25703167     0.14200
C701        C  0.48183570  0.59363471  0.20941705    -0.15400
C702        C  0.51193914  0.58114681  0.24132927    -0.30500
H703        H  0.49278921  0.60401657  0.17176351     0.13600
H704        H  0.50168047  0.56197574  0.27384768     0.14200
C705        C  0.55838146  0.65055057  0.41432670    -0.15400
C706        C  0.58383738  0.66239992  0.37505197    -0.30500
H707        H  0.53293181  0.62923285  0.40937084     0.13600
H708        H  0.61038661  0.68210346  0.38227037     0.14200
C709        C  0.58131754  0.85446738  0.38208286    -0.15400
C710        C  0.60314189  0.83554458  0.34481862    -0.30500
H711        H  0.55706085  0.87686440  0.37313107     0.13600
H712        H  0.62978087  0.81627466  0.35425737     0.14200
C713        C  0.63134830  0.76556306  0.52702142    -0.15400
C714        C  0.61032050  0.73908399  0.55882876    -0.30500
H715        H  0.65090216  0.75125509  0.49765623     0.13600
H716        H  0.59444623  0.75211412  0.59195094     0.14200
C717        C  0.40004831  0.66463130  0.35570463    -0.15400
C718        C  0.42164107  0.65054789  0.39630114    -0.30500
H719        H  0.37333220  0.68482440  0.36189387     0.13600
H720        H  0.44673152  0.62832952  0.39095013     0.14200
C721        C  0.46131243  0.62949733  0.57768794    -0.15400
C722        C  0.50285084  0.62683714  0.58266193    -0.30500
H723        H  0.44233367  0.61166301  0.60505556     0.13600
H724        H  0.51422782  0.60720209  0.61357340     0.14200
C725        C  0.41083782  0.84258968  0.39655465    -0.15400
C726        C  0.38898526  0.82928530  0.35708622    -0.30500
H727        H  0.43676873  0.86366251  0.39026823     0.13600
H728        H  0.36120643  0.81074154  0.36386422     0.14200
C729        C  0.47927597  0.83707758  0.54476128    -0.15400
C730        C  0.50641664  0.86085319  0.51729387    -0.30500
H731        H  0.49014673  0.81585043  0.57423174     0.13600
H732        H  0.49553270  0.88272878  0.48868394     0.14200
C733        C  0.33963492  0.76448028  0.54556170    -0.15400
C734        C  0.34119292  0.72233173  0.54355166    -0.30500
H735        H  0.31156626  0.77595487  0.56481296     0.13600
H736        H  0.31352692  0.70856833  0.56158897     0.14200
C737        C  0.46691426  0.09389564  0.79116464    -0.15400
C738        C  0.50158524  0.08374259  0.76407837    -0.30500
H739        H  0.47173746  0.10351625  0.83016449     0.13600
H740        H  0.49685742  0.06568000  0.72994561     0.14200
C741        C  0.56210931  0.22529427  0.79745796    -0.15400
C742        C  0.59115158  0.25456769  0.78885693    -0.30500
H743        H  0.53149856  0.23466949  0.81153280     0.13600
H744        H  0.62167675  0.24543695  0.77462234     0.14200
C745        C  0.40642772  0.25016904  0.80028089    -0.15400
C746        C  0.37937232  0.22422083  0.77883895    -0.30500
H747        H  0.43402904  0.23772107  0.81808200     0.13600
H748        H  0.35169888  0.23647219  0.76122621     0.14200
C749        C  0.46781958  0.39332264  0.81581562    -0.15400
C750        C  0.50972502  0.39241642  0.82006535    -0.30500
H751        H  0.45352957  0.41872610  0.83715366     0.13600
H752        H  0.52059920  0.41715231  0.84436987     0.14200
C753        C  0.40320153  0.32342963  0.65968611    -0.15400
C754        C  0.41205400  0.34771603  0.61851059    -0.30500
H755        H  0.38795934  0.29374383  0.65533670     0.13600
H756        H  0.42673983  0.37777344  0.62353325     0.14200
C757        C  0.59173125  0.34297871  0.66186716    -0.15400
C758        C  0.56889783  0.35741345  0.62323461    -0.30500
H759        H  0.62001988  0.32561138  0.65325768     0.13600
H760        H  0.54187571  0.37704149  0.63014746     0.14200
C761        C  0.50554420  0.36231788  0.48027001    -0.15400
C762        C  0.47940391  0.33184711  0.46786188    -0.30500
H763        H  0.49332942  0.39143257  0.49486323     0.13600
H764        H  0.49164762  0.30281290  0.45299162     0.14200
C765        C  0.42010288  0.14387326  0.59458839    -0.15400
C766        C  0.39733500  0.15922904  0.63381999    -0.30500
H767        H  0.44361883  0.12017038  0.60116902     0.13600
H768        H  0.37158710  0.18017861  0.62610121     0.14200
C769        C  0.35372403  0.23057475  0.45296522    -0.15400
C770        C  0.34135932  0.25890140  0.48758915    -0.30500
H771        H  0.36476186  0.24333884  0.41640203     0.13600
H772        H  0.32508529  0.24639909  0.52131543     0.14200
C773        C  0.58825090  0.14261122  0.60413335    -0.15400
C774        C  0.59323333  0.16727562  0.64459027    -0.30500
H775        H  0.57612338  0.11131526  0.61023476     0.13600
H776        H  0.60806413  0.19749539  0.64060582     0.14200
C777        C  0.51132029  0.13389508  0.47480480    -0.15400
C778        C  0.48376101  0.14896092  0.44164240    -0.30500
H779        H  0.50104250  0.11455231  0.50702362     0.13600
H780        H  0.49467421  0.16800308  0.40934529     0.14200
C781        C  0.62312208  0.24218204  0.45476199    -0.15400
C782        C  0.63713171  0.27181739  0.48606560    -0.30500
H783        H  0.60593438  0.25262867  0.42177595     0.13600
H784        H  0.65927944  0.26230689  0.51477178     0.14200
loop_ 
_geom_bond_atom_site_label_1 
_geom_bond_atom_site_label_2 
_geom_bond_distance 
_geom_bond_site_symmetry_2 
_ccdc_geom_bond_type 
O1            C4   1.271   1_556  A
O1           Cd6   2.473       .  S
C2           O11   1.265       .  A
C2            O7   1.271       .  A
C2          C375   1.480       .  S
O3            C9   1.271       .  A
O3           Cd6   2.488       .  S
C4           O12   1.266       .  A
C4          C459   1.480       .  S
C5           O10   1.271       .  A
C5            O8   1.262   1_565  A
C5           C18   1.466       .  S
Cd6          O13   2.438   1_545  S
Cd6          O12   2.475   1_556  S
Cd6          O11   2.481   1_545  S
Cd6           O7   2.452   1_545  S
Cd6          O10   2.498   1_546  S
Cd6           O8   2.442   1_556  S
C9           O13   1.260   1_545  A
C9           C31   1.464       .  S
O14          C17   1.270       .  A
O14         Cd19   2.445       .  S
C15          O24   1.265       .  A
C15          O20   1.271       .  A
C15         C399   1.475       .  S
O16          C22   1.260       .  A
O16         Cd19   2.425       .  S
C17          O25   1.266       .  A
C17         C275   1.472       .  S
C18          O23   1.270       .  A
C18          O21   1.262       .  A
Cd19         O26   2.488       .  S
Cd19         O25   2.445       .  S
Cd19         O24   2.465       .  S
Cd19         O20   2.434       .  S
Cd19         O23   2.479       .  S
Cd19         O21   2.452       .  S
C22          O26   1.272       .  A
C22          C44   1.463       .  S
O27          C30   1.272       .  A
O27         Cd32   2.454       .  S
C28          O37   1.266       .  A
C28          O33   1.270       .  A
C28         C495   1.482       .  S
O29          C35   1.271       .  A
O29         Cd32   2.485       .  S
C30          O38   1.265       .  A
C30         C179   1.473       .  S
C31          O36   1.272       .  A
C31          O34   1.261       .  A
Cd32         O39   2.426       .  S
Cd32         O38   2.444       .  S
Cd32         O37   2.487       .  S
Cd32         O33   2.469       .  S
Cd32         O36   2.485       .  S
Cd32         O34   2.437       .  S
C35          O39   1.263       .  A
C35          C48   1.462       .  S
O40          C43   1.271       .  A
O40         Cd45   2.467   1_545  S
C41          O50   1.265       .  A
C41          O46   1.271       .  A
C41         C203   1.475       .  S
O42          C48   1.261   1_565  A
O42         Cd45   2.462       .  S
C43          O51   1.263       .  A
C43         C119   1.471       .  S
C44          O49   1.269       .  A
C44          O47   1.261   1_565  A
Cd45         O52   2.474   1_565  S
Cd45         O51   2.415   1_565  S
Cd45         O50   2.415       .  S
Cd45         O46   2.487       .  S
Cd45         O49   2.475       .  S
Cd45         O47   2.454   1_565  S
C48          O52   1.267       .  A
O53          C56   1.270       .  A
O53         Cd58   2.496   1_545  S
C54          O63   1.266       .  A
C54          O59   1.270       .  A
C54         C366   1.479       .  S
O55          C61   1.270   1_545  A
O55         Cd58   2.536   1_544  S
C56          O64   1.266   1_556  A
C56         C450   1.480       .  S
C57          O62   1.271   1_545  A
C57          O60   1.262       .  A
C57          C70   1.467       .  S
Cd58         O65   2.410   1_556  S
Cd58         O64   2.434   1_566  S
Cd58         O63   2.467       .  S
Cd58         O59   2.458       .  S
Cd58         O62   2.533       .  S
Cd58         O60   2.406   1_565  S
C61          O65   1.262       .  A
C61          C96   1.468       .  S
O66          C69   1.270       .  A
O66         Cd71   2.457       .  S
C67          O76   1.266       .  A
C67          O72   1.270       .  A
C67         C194   1.485       .  S
O68          C74   1.269       .  A
O68         Cd71   2.528       .  S
C69          O77   1.265       .  A
C69         C510   1.479       .  S
C70          O75   1.270       .  A
C70          O73   1.260       .  A
Cd71         O78   2.413       .  S
Cd71         O77   2.470       .  S
Cd71         O76   2.473       .  S
Cd71         O72   2.479       .  S
Cd71         O75   2.537       .  S
Cd71         O73   2.404       .  S
C74          O78   1.262       .  A
C74          C87   1.467       .  S
O79          C82   1.267       .  A
O79         Cd84   2.456   1_565  S
C80          O89   1.270       .  A
C80          O85   1.270       .  A
C80         C110   1.476       .  S
O81          C87   1.274       .  A
O81         Cd84   2.530       .  S
C82          O90   1.264       .  A
C82         C230   1.480       .  S
C83          O88   1.272       .  A
C83          O86   1.262   1_565  A
C83         C100   1.473       .  S
Cd84         O91   2.399       .  S
Cd84         O90   2.494   1_545  S
Cd84         O89   2.504       .  S
Cd84         O85   2.408       .  S
Cd84         O88   2.508   1_545  S
Cd84         O86   2.452       .  S
C87          O91   1.261       .  A
O92          C95   1.271       .  A
O92         Cd97   2.466       .  S
C93         O102   1.263       .  A
C93          O98   1.267       .  A
C93         C290   1.480       .  S
O94         C100   1.261       .  A
O94         Cd97   2.473       .  S
C95         O103   1.270       .  A
C95         C414   1.479       .  S
C96         O101   1.271       .  A
C96          O99   1.261       .  A
Cd97        O104   2.507       .  S
Cd97        O103   2.444       .  S
Cd97        O102   2.497       .  S
Cd97         O98   2.458       .  S
Cd97        O101   2.538       .  S
Cd97         O99   2.409       .  S
C100        O104   1.270       .  A
C105        C106   1.547       .  S
C105        C111   1.542       .  S
C105        C109   1.548       .  S
C105        C781   1.532       .  S
C106        H113   1.079       .  S
C106        C107   1.362       .  D
C107        C108   1.527       .  S
C107        C773   1.476       .  S
C108        C112   1.521       .  S
C108        C110   1.531       .  S
C108        H114   1.112       .  S
C109        H115   1.085       .  S
C109        C110   1.376       .  D
C111        H116   1.086       .  S
C111        C112   1.366       .  D
C112        C777   1.479       .  S
C117        C118   1.529       .  S
C117        C123   1.531       .  S
C117        C121   1.548       .  S
C117        C769   1.526       .  S
C118        H125   1.086       .  S
C118        C119   1.372       .  D
C119        C120   1.539       .  S
C120        C124   1.545       .  S
C120        C122   1.527       .  S
C120        H126   1.110       .  S
C121        H127   1.079       .  S
C121        C122   1.363       .  D
C122        C765   1.483       .  S
C123        H128   1.086       .  S
C123        C124   1.360       .  D
C124        C778   1.479       .  S
C129        C130   1.535       .  S
C129        C135   1.544       .  S
C129        C133   1.540       .  S
C129        C782   1.530       .  S
C130        H137   1.086       .  S
C130        C131   1.372       .  D
C131        C557   1.471       .  S
C131        C132   1.533       .  S
C132        C136   1.529       .  S
C132        C134   1.523       .  S
C132        H138   1.112       .  S
C133        H139   1.085       .  S
C133        C134   1.366       .  D
C134        C758   1.478       .  S
C135        H140   1.080       .  S
C135        C136   1.372       .  D
C136        C761   1.484       .  S
C141        C142   1.539       .  S
C141        C147   1.538       .  S
C141        C145   1.524       .  S
C141        C770   1.527       .  S
C142        H149   1.082       .  S
C142        C143   1.371       .  D
C143        C144   1.536       .  S
C143        C754   1.495       .  S
C144        C148   1.543       .  S
C144        C146   1.540       .  S
C144        H150   1.107       .  S
C145        H151   1.086       .  S
C145        C146   1.369       .  D
C146        C311   1.467       .  S
C147        H152   1.082       .  S
C147        C148   1.360       .  D
C148        C762   1.480       .  S
C153        C154   1.549       .  S
C153        C159   1.529       .  S
C153        C157   1.539       .  S
C153        C749   1.525       .  S
C154        H161   1.077       .  S
C154        C155   1.373       .  D
C155        C156   1.530       .  S
C155        C753   1.478       .  S
C156        C160   1.544       .  S
C156        C158   1.531       .  S
C156        H162   1.107       .  S
C157        H163   1.087       .  S
C157        C158   1.361       .  D
C158        C298   1.479       .  S
C159        H164   1.082       .  S
C159        C160   1.365       .  D
C160        C745   1.482       .  S
C165        C166   1.543       .  S
C165        C171   1.545       .  S
C165        C169   1.540       .  S
C165        C750   1.529       .  S
C166        H173   1.087       .  S
C166        C167   1.358       .  D
C167        C542   1.473       .  S
C167        C168   1.525       .  S
C168        C172   1.530       .  S
C168        C170   1.528       .  S
C168        H174   1.112       .  S
C169        H175   1.077       .  S
C169        C170   1.371       .  D
C170        C757   1.475       .  S
C171        H176   1.080       .  S
C171        C172   1.378       .  D
C172        C742   1.488       .  S
C177        C178   1.538       .  S
C177        C183   1.539       .  S
C177        C181   1.549       .  S
C177        C737   1.533       .  S
C178        H185   1.086       .  S
C178        C179   1.375       .  D
C179        C180   1.532       .  S
C180        C184   1.528       .  S
C180        C182   1.528       .  S
C180        H186   1.111       .  S
C181        H187   1.075       .  S
C181        C182   1.365       .  D
C182        C766   1.479       .  S
C183        H188   1.082       .  S
C183        C184   1.363       .  D
C184        C746   1.483       .  S
C189        C190   1.536       .  S
C189        C195   1.537       .  S
C189        C193   1.538       .  S
C189        C738   1.532       .  S
C190        H197   1.082       .  S
C190        C191   1.361       .  D
C191        C192   1.527       .  S
C191        C774   1.479       .  S
C192        C196   1.551       .  S
C192        C194   1.545       .  S
C192        H198   1.108       .  S
C193        H199   1.086       .  S
C193        C194   1.378       .  D
C195        H200   1.080       .  S
C195        C196   1.359       .  D
C196        C741   1.492       .  S
C201        C202   1.543       .  S
C201        C207   1.531       .  S
C201        C205   1.534       .  S
C201        C733   1.516       .  S
C202        H209   1.087       .  S
C202        C203   1.362       .  D
C203        C204   1.526       .  S
C204        C208   1.541       .  S
C204        C206   1.528       .  S
C204        H210   1.106       .  S
C205        H211   1.077       .  S
C205        C206   1.369       .  D
C206        C725   1.472       .  S
C207        H212   1.085       .  S
C207        C208   1.370       .  D
C208        C729   1.479       .  S
C213        C214   1.536       .  S
C213        C219   1.539       .  S
C213        C217   1.542       .  S
C213        C734   1.535       .  S
C214        H221   1.074       .  S
C214        C215   1.372       .  D
C215        C216   1.544       .  S
C215        C718   1.490       .  S
C216        C220   1.550       .  S
C216        C218   1.536       .  S
C216        H222   1.111       .  S
C217        H223   1.087       .  S
C217        C218   1.357       .  D
C218        C313   1.483       .  S
C219        H224   1.086       .  S
C219        C220   1.376       .  D
C220        C721   1.486       .  S
C225        C226   1.536       .  S
C225        C231   1.540       .  S
C225        C229   1.543       .  S
C225        C713   1.532       .  S
C226        H233   1.084       .  S
C226        C227   1.362       .  D
C227        C228   1.525       .  S
C227        C709   1.475       .  S
C228        C232   1.532       .  S
C228        C230   1.539       .  S
C228        H234   1.111       .  S
C229        H235   1.085       .  S
C229        C230   1.378       .  D
C231        H236   1.078       .  S
C231        C232   1.362       .  D
C232        C730   1.482       .  S
C237        C238   1.536       .  S
C237        C243   1.544       .  S
C237        C241   1.542       .  S
C237        C714   1.526       .  S
C238        H245   1.086       .  S
C238        C239   1.371       .  D
C239        C555   1.480       .  S
C239        C240   1.540       .  S
C240        C244   1.535       .  S
C240        C242   1.530       .  S
C240        H246   1.111       .  S
C241        H247   1.081       .  S
C241        C242   1.362       .  D
C242        C705   1.468       .  S
C243        H248   1.086       .  S
C243        C244   1.365       .  D
C244        C722   1.478       .  S
C249        C250   1.546       .  S
C249        C255   1.531       .  S
C249        C253   1.532       .  S
C249        C701   1.535       .  S
C250        H257   1.066       .  S
C250        C251   1.366       .  D
C251        C252   1.536       .  S
C251        C717   1.496       .  S
C252        C256   1.549       .  S
C252        C254   1.547       .  S
C252        H258   1.108       .  S
C253        H259   1.086       .  S
C253        C254   1.374       .  D
C254        C337   1.481       .  S
C255        H260   1.086       .  S
C255        C256   1.357       .  D
C256        C697   1.487       .  S
C261        C262   1.534       .  S
C261        C267   1.540       .  S
C261        C265   1.531       .  S
C261        C702   1.534       .  S
C262        H269   1.086       .  S
C262        C263   1.376       .  D
C263        C583   1.473       .  S
C263        C264   1.540       .  S
C264        C268   1.540       .  S
C264        C266   1.536       .  S
C264        H270   1.108       .  S
C265        H271   1.076       .  S
C265        C266   1.360       .  D
C266        C706   1.487       .  S
C267        H272   1.082       .  S
C267        C268   1.363       .  D
C268        C693   1.482       .  S
C273        C274   1.534       .  S
C273        C279   1.553       .  S
C273        C277   1.537       .  S
C273        C689   1.531       .  S
C274        H281   1.086       .  S
C274        C275   1.369       .  D
C275        C276   1.533       .  S
C276        C280   1.527       .  S
C276        C278   1.525       .  S
C276        H282   1.112       .  S
C277        H283   1.082       .  S
C277        C278   1.364       .  D
C278        C726   1.478       .  S
C279        H284   1.082       .  S
C279        C280   1.378       .  D
C280        C698   1.488       .  S
C285        C286   1.549       .  S
C285        C291   1.534       .  S
C285        C289   1.544       .  S
C285        C690   1.533       .  S
C286        H293   1.080       .  S
C286        C287   1.364       .  D
C287        C288   1.522       .  S
C287        C710   1.471       .  S
C288        C292   1.529       .  S
C288        C290   1.534       .  S
C288        H294   1.112       .  S
C289        H295   1.085       .  S
C289        C290   1.378       .  D
C291        H296   1.083       .  S
C291        C292   1.365       .  D
C292        C694   1.487       .  S
O297        C300   1.270       .  A
O297       Cd302   2.534       .  S
C298        O307   1.264       .  A
C298        O303   1.271       .  A
O299        C305   1.263       .  A
O299       Cd302   2.495       .  S
C300        O308   1.264       .  A
C300        C534   1.481       .  S
C301        O306   1.262       .  A
C301        O304   1.270       .  A
C301        C327   1.477       .  S
Cd302       O309   2.524       .  S
Cd302       O308   2.393       .  S
Cd302       O307   2.392       .  S
Cd302       O303   2.516       .  S
Cd302       O306   2.480       .  S
Cd302       O304   2.515       .  S
C305        O309   1.268       .  A
C305        C318   1.480       .  S
O310        C313   1.269       .  A
O310       Cd315   2.531       .  S
C311        O320   1.264       .  A
C311        O316   1.270       .  A
O312        C318   1.269       .  A
O312       Cd315   2.518       .  S
C313        O321   1.266       .  A
C314        O319   1.262       .  A
C314        O317   1.269       .  A
C314        C344   1.474       .  S
Cd315       O322   2.489       .  S
Cd315       O321   2.401       .  S
Cd315       O320   2.403       .  S
Cd315       O316   2.463       .  S
Cd315       O319   2.477       .  S
Cd315       O317   2.505       .  S
C318        O322   1.263       .  A
O323        C326   1.269       .  A
O323       Cd328   2.437       .  S
C324        O333   1.266       .  A
C324        O329   1.269   1_556  A
C324        C390   1.480       .  S
O325        C331   1.260       .  A
O325       Cd328   2.474       .  S
C326        O334   1.265       .  A
C326        C486   1.474       .  S
C327        O332   1.270       .  A
C327        O330   1.261       .  A
Cd328       O335   2.508       .  S
Cd328       O334   2.472       .  S
Cd328       O333   2.482   1_554  S
Cd328       O329   2.464       .  S
Cd328       O332   2.517   1_554  S
Cd328       O330   2.477   1_554  S
C331        O335   1.270       .  A
C331        C340   1.475       .  S
O336        C339   1.269       .  A
O336       Cd341   2.456       .  S
C337        O346   1.265       .  A
C337        O342   1.269       .  A
O338        C344   1.269       .  A
O338       Cd341   2.505       .  S
C339        O347   1.266       .  A
C339        C426   1.477       .  S
C340        O345   1.271       .  A
C340        O343   1.262       .  A
Cd341       O348   2.471       .  S
Cd341       O347   2.480       .  S
Cd341       O346   2.454       .  S
Cd341       O342   2.489       .  S
Cd341       O345   2.512       .  S
Cd341       O343   2.466       .  S
C344        O348   1.262       .  A
C349        C350   1.534       .  S
C349        C355   1.542       .  S
C349        C353   1.535   1_556  S
C349        C685   1.528       .  S
C350        H357   1.086       .  S
C350        C351   1.374       .  D
C351        C568   1.477       .  S
C351        C352   1.539   1_556  S
C352        C356   1.542   1_554  S
C352        C354   1.523       .  S
C352        H358   1.110       .  S
C353        H359   1.084       .  S
C353        C354   1.362       .  D
C354        C678   1.471       .  S
C355        H360   1.083       .  S
C355        C356   1.365       .  D
C356        C681   1.486       .  S
C361        C362   1.556   1_556  S
C361        C367   1.534       .  S
C361        C365   1.536       .  S
C361        C686   1.529       .  S
C362        H369   1.079       .  S
C362        C363   1.370       .  D
C363        C364   1.530   1_554  S
C363        C669   1.488       .  S
C364        C368   1.539       .  S
C364        C366   1.540       .  S
C364        H370   1.109       .  S
C365        H371   1.086       .  S
C365        C366   1.373       .  D
C367        H372   1.087       .  S
C367        C368   1.357       .  D
C368        C673   1.484       .  S
C373        C374   1.547       .  S
C373        C379   1.549       .  S
C373        C377   1.535   1_556  S
C373        C665   1.537       .  S
C374        H381   1.085       .  S
C374        C375   1.380       .  D
C375        C376   1.531   1_556  S
C376        C380   1.527   1_554  S
C376        C378   1.524       .  S
C376        H382   1.112       .  S
C377        H383   1.079       .  S
C377        C378   1.357       .  D
C378        C661   1.470       .  S
C379        H384   1.081       .  S
C379        C380   1.369       .  D
C380        C674   1.485       .  S
C385        C386   1.544   1_556  S
C385        C391   1.541       .  S
C385        C389   1.541       .  S
C385        C666   1.537       .  S
C386        H393   1.073       .  S
C386        C387   1.362       .  D
C387        C388   1.528       .  S
C387        C657   1.481       .  S
C388        C392   1.532   1_554  S
C388        C390   1.538   1_554  S
C388        H394   1.111       .  S
C389        H395   1.086       .  S
C389        C390   1.376       .  D
C391        H396   1.084       .  S
C391        C392   1.368       .  D
C392        C682   1.487       .  S
C397        C398   1.542       .  S
C397        C403   1.537       .  S
C397        C401   1.539       .  S
C397        C654   1.532       .  S
C398        H405   1.085       .  S
C398        C399   1.376       .  D
C399        C400   1.533       .  S
C400        C404   1.539       .  S
C400        C402   1.523       .  S
C400        H406   1.108       .  S
C401        H407   1.079       .  S
C401        C402   1.356       .  D
C402        C662   1.470       .  S
C403        H408   1.086       .  S
C403        C404   1.364       .  D
C404        C649   1.480       .  S
C409        C410   1.546       .  S
C409        C415   1.539       .  S
C409        C413   1.530       .  S
C409        C653   1.534       .  S
C410        H417   1.084       .  S
C410        C411   1.371       .  D
C411        C412   1.535       .  S
C411        C670   1.492       .  S
C412        C416   1.546       .  S
C412        C414   1.545       .  S
C412        H418   1.108       .  S
C413        H419   1.086       .  S
C413        C414   1.371       .  D
C415        H420   1.084       .  S
C415        C416   1.360       .  D
C416        C645   1.489       .  S
C421        C422   1.545       .  S
C421        C427   1.534       .  S
C421        C425   1.540       .  S
C421        C642   1.527       .  S
C422        H429   1.082       .  S
C422        C423   1.363       .  D
C423        C424   1.529       .  S
C423        C658   1.480       .  S
C424        C428   1.533       .  S
C424        C426   1.537       .  S
C424        H430   1.111       .  S
C425        H431   1.086       .  S
C425        C426   1.375       .  D
C427        H432   1.084       .  S
C427        C428   1.367       .  D
C428        C650   1.482       .  S
C433        C434   1.537       .  S
C433        C439   1.551       .  S
C433        C437   1.538       .  S
C433        C641   1.530       .  S
C434        H441   1.086       .  S
C434        C435   1.373       .  D
C435        C581   1.475       .  S
C435        C436   1.533       .  S
C436        C440   1.528       .  S
C436        C438   1.527       .  S
C436        H442   1.112       .  S
C437        H443   1.084       .  S
C437        C438   1.362       .  D
C438        C677   1.471       .  S
C439        H444   1.082       .  S
C439        C440   1.372       .  D
C440        C646   1.492       .  S
C445        C446   1.537       .  S
C445        C451   1.539   1_556  S
C445        C449   1.529   1_556  S
C445        C637   1.530   1_556  S
C446        H453   1.084       .  S
C446        C447   1.366       .  D
C447        C448   1.534       .  S
C447        C629   1.484       .  S
C448        C452   1.548   1_556  S
C448        C450   1.547       .  S
C448        H454   1.109       .  S
C449        H455   1.086       .  S
C449        C450   1.373   1_554  D
C451        H456   1.084       .  S
C451        C452   1.362       .  D
C452        C633   1.489       .  S
C457        C458   1.542       .  S
C457        C463   1.552       .  S
C457        C461   1.533   1_554  S
C457        C625   1.533       .  S
C458        H465   1.086       .  S
C458        C459   1.376       .  D
C459        C460   1.535   1_554  S
C460        C464   1.530       .  S
C460        C462   1.536       .  S
C460        H466   1.109       .  S
C461        H467   1.087       .  S
C461        C462   1.354       .  D
C462        C621   1.467       .  S
C463        H468   1.081       .  S
C463        C464   1.370   1_554  D
C464        C634   1.495       .  S
C469        C470   1.537       .  S
C469        C475   1.532       .  S
C469        C473   1.549   1_554  S
C469        C638   1.528       .  S
C470        H477   1.086       .  S
C470        C471   1.374       .  D
C471        C570   1.473       .  S
C471        C472   1.535       .  S
C472        C476   1.541       .  S
C472        C474   1.533   1_554  S
C472        H478   1.108   1_554  S
C473        H479   1.078       .  S
C473        C474   1.362       .  D
C474        C613   1.489       .  S
C475        H480   1.087       .  S
C475        C476   1.358       .  D
C476        C618   1.477       .  S
C481        C482   1.550   1_554  S
C481        C487   1.537       .  S
C481        C485   1.540       .  S
C481        C626   1.527       .  S
C482        H489   1.081       .  S
C482        C483   1.365       .  D
C483        C484   1.524   1_556  S
C483        C609   1.478       .  S
C484        C488   1.526       .  S
C484        C486   1.531       .  S
C484        H490   1.112   1_554  S
C485        H491   1.085       .  S
C485        C486   1.374       .  D
C487        H492   1.084       .  S
C487        C488   1.369       .  D
C488        C617   1.481   1_455  S
C493        C494   1.544       .  S
C493        C499   1.550       .  S
C493        C497   1.535       .  S
C493        C601   1.534   1_455  S
C494        H501   1.085       .  S
C494        C495   1.377       .  D
C495        C496   1.534       .  S
C496        C500   1.531       .  S
C496        C498   1.534       .  S
C496        H502   1.107       .  S
C497        H503   1.086       .  S
C497        C498   1.355       .  D
C498        C622   1.469       .  S
C499        H504   1.080       .  S
C499        C500   1.369       .  D
C500        C605   1.494       .  S
C505        C506   1.550       .  S
C505        C511   1.538       .  S
C505        C509   1.539       .  S
C505        C602   1.534       .  S
C506        H513   1.076       .  S
C506        C507   1.364       .  D
C507        C508   1.527       .  S
C507        C630   1.480       .  S
C508        C512   1.530       .  S
C508        C510   1.535       .  S
C508        H514   1.111       .  S
C509        H515   1.086       .  S
C509        C510   1.374       .  D
C511        H516   1.083       .  S
C511        C512   1.369       .  D
C512        C597   1.488       .  S
C517        C518   1.538       .  S
C517        C523   1.525       .  S
C517        C521   1.537       .  S
C517        C593   1.522       .  S
C518        H525   1.086       .  S
C518        C519   1.367       .  D
C519        C544   1.475       .  S
C519        C520   1.537       .  S
C520        C524   1.546       .  S
C520        C522   1.538       .  S
C520        H526   1.107       .  S
C521        H527   1.072       .  S
C521        C522   1.369       .  D
C522        C614   1.488       .  S
C523        H528   1.081       .  S
C523        C524   1.361       .  D
C524        C598   1.483       .  S
C529        C530   1.533       .  S
C529        C535   1.533       .  S
C529        C533   1.532       .  S
C529        C594   1.532       .  S
C530        H537   1.074       .  S
C530        C531   1.372       .  D
C531        C532   1.535       .  S
C531        C610   1.487       .  S
C532        C536   1.550       .  S
C532        C534   1.543       .  S
C532        H538   1.107       .  S
C533        H539   1.087       .  S
C533        C534   1.364       .  D
C535        H540   1.076       .  S
C535        C536   1.367       .  D
C536        C606   1.492       .  S
O541        C544   1.270       .  A
O541       Cd546   2.494       .  S
C542        O551   1.265       .  A
C542        O547   1.270       .  A
O543        C549   1.269       .  A
O543       Cd546   2.483       .  S
C544        O552   1.264       .  A
C545        O550   1.261       .  A
C545        O548   1.269       .  A
C545        C562   1.470       .  S
Cd546       O553   2.465       .  S
Cd546       O552   2.409       .  S
Cd546       O551   2.406       .  S
Cd546       O547   2.489       .  S
Cd546       O550   2.462       .  S
Cd546       O548   2.505       .  S
C549        O553   1.262       .  A
C549        C575   1.466       .  S
O554        C557   1.269       .  A
O554       Cd559   2.449       .  S
C555        O564   1.266       .  A
C555        O560   1.268       .  A
O556        C562   1.268       .  A
O556       Cd559   2.495       .  S
C557        O565   1.265       .  A
C558        O563   1.260       .  A
C558        O561   1.269       .  A
C558        C588   1.464       .  S
Cd559       O566   2.471       .  S
Cd559       O565   2.444       .  S
Cd559       O564   2.464       .  S
Cd559       O560   2.475       .  S
Cd559       O563   2.447       .  S
Cd559       O561   2.491       .  S
C562        O566   1.261       .  A
O567        C570   1.270       .  A
O567       Cd572   2.440       .  S
C568        O577   1.266       .  A
C568        O573   1.271   1_556  A
O569        C575   1.271       .  A
O569       Cd572   2.498   1_556  S
C570        O578   1.265       .  A
C571        O576   1.271       .  A
C571        O574   1.262       .  A
C571        C584   1.469       .  S
Cd572       O579   2.434   1_554  S
Cd572       O578   2.452       .  S
Cd572       O577   2.443   1_554  S
Cd572       O573   2.465       .  S
Cd572       O576   2.489       .  S
Cd572       O574   2.461       .  S
C575        O579   1.260       .  A
O580        C583   1.272       .  A
O580       Cd585   2.473       .  S
C581        O590   1.266       .  A
C581        O586   1.270       .  A
O582        C588   1.271       .  A
O582       Cd585   2.476       .  S
C583        O591   1.265       .  A
C584        O589   1.272       .  A
C584        O587   1.261       .  A
Cd585       O592   2.445       .  S
Cd585       O591   2.422       .  S
Cd585       O590   2.458       .  S
Cd585       O586   2.456       .  S
Cd585       O589   2.497       .  S
Cd585       O587   2.442       .  S
C588        O592   1.263       .  A
C593        H595   1.088       .  S
C593        C594   1.359   1_655  D
C594        H596   1.088       .  S
C597        H599   1.082       .  S
C597        C598   1.342       .  D
C598        H600   1.083       .  S
C601        H603   1.087       .  S
C601        C602   1.349       .  D
C602        H604   1.085       .  S
C605        H607   1.082       .  S
C605        C606   1.346       .  D
C606        H608   1.084       .  S
C609        H611   1.082       .  S
C609        C610   1.343       .  D
C610        H612   1.085       .  S
C613        H615   1.083       .  S
C613        C614   1.351       .  D
C614        H616   1.084       .  S
C617        H619   1.083       .  S
C617        C618   1.338       .  D
C618        H620   1.084       .  S
C621        H623   1.083       .  S
C621        C622   1.334       .  D
C622        H624   1.085       .  S
C625        H627   1.088       .  S
C625        C626   1.346       .  D
C626        H628   1.085       .  S
C629        H631   1.084       .  S
C629        C630   1.346       .  D
C630        H632   1.084       .  S
C633        H635   1.084       .  S
C633        C634   1.344   1_654  D
C634        H636   1.084   1_455  S
C637        H639   1.087   1_554  S
C637        C638   1.344       .  D
C638        H640   1.087       .  S
C641        H643   1.088       .  S
C641        C642   1.345   1_655  D
C642        H644   1.086       .  S
C645        H647   1.084       .  S
C645        C646   1.342       .  D
C646        H648   1.083       .  S
C649        H651   1.084       .  S
C649        C650   1.344       .  D
C650        H652   1.083       .  S
C653        H655   1.087       .  S
C653        C654   1.353   1_655  D
C654        H656   1.086   1_455  S
C657        H659   1.086       .  S
C657        C658   1.345       .  D
C658        H660   1.085       .  S
C661        H663   1.085       .  S
C661        C662   1.345       .  D
C662        H664   1.083       .  S
C665        H667   1.087   1_556  S
C665        C666   1.353       .  D
C666        H668   1.084       .  S
C669        H671   1.083       .  S
C669        C670   1.347       .  D
C670        H672   1.084       .  S
C673        H675   1.085   1_655  S
C673        C674   1.342   1_655  D
C674        H676   1.083   1_455  S
C677        H679   1.086       .  S
C677        C678   1.341       .  D
C678        H680   1.083       .  S
C681        H683   1.085       .  S
C681        C682   1.346   1_655  D
C682        H684   1.084   1_456  S
C685        H687   1.087   1_556  S
C685        C686   1.344       .  D
C686        H688   1.086       .  S
C689        H691   1.087       .  S
C689        C690   1.346       .  D
C690        H692   1.085       .  S
C693        H695   1.083       .  S
C693        C694   1.344       .  D
C694        H696   1.083       .  S
C697        H699   1.085       .  S
C697        C698   1.337       .  D
C698        H700   1.083       .  S
C701        H703   1.086       .  S
C701        C702   1.349       .  D
C702        H704   1.087       .  S
C705        H707   1.080       .  S
C705        C706   1.349       .  D
C706        H708   1.086       .  S
C709        H711   1.085       .  S
C709        C710   1.340       .  D
C710        H712   1.085       .  S
C713        H715   1.088       .  S
C713        C714   1.351       .  D
C714        H716   1.084       .  S
C717        H719   1.084       .  S
C717        C718   1.353       .  D
C718        H720   1.082       .  S
C721        H723   1.086       .  S
C721        C722   1.348       .  D
C722        H724   1.086       .  S
C725        H727   1.083       .  S
C725        C726   1.340       .  D
C726        H728   1.084       .  S
C729        H731   1.083       .  S
C729        C730   1.348       .  D
C730        H732   1.080       .  S
C733        H735   1.089       .  S
C733        C734   1.353       .  D
C734        H736   1.089       .  S
C737        H739   1.086       .  S
C737        C738   1.349       .  D
C738        H740   1.087       .  S
C741        H743   1.086       .  S
C741        C742   1.339       .  D
C742        H744   1.083       .  S
C745        H747   1.084       .  S
C745        C746   1.345       .  D
C746        H748   1.081       .  S
C749        H751   1.089       .  S
C749        C750   1.355       .  D
C750        H752   1.089       .  S
C753        H755   1.081       .  S
C753        C754   1.344       .  D
C754        H756   1.086       .  S
C757        H759   1.086       .  S
C757        C758   1.339       .  D
C758        H760   1.084       .  S
C761        H763   1.083       .  S
C761        C762   1.340       .  D
C762        H764   1.083       .  S
C765        H767   1.084       .  S
C765        C766   1.346       .  D
C766        H768   1.084       .  S
C769        H771   1.087       .  S
C769        C770   1.346       .  D
C770        H772   1.087       .  S
C773        H775   1.085       .  S
C773        C774   1.345       .  D
C774        H776   1.083       .  S
C777        H779   1.084       .  S
C777        C778   1.338       .  D
C778        H780   1.086       .  S
C781        H783   1.084       .  S
C781        C782   1.350       .  D
C782        H784   1.087       .  S
