geometry optimzed in LAMMPS
_audit_creation_date              2020-11-30 
_audit_creation_method            'lammps2cif' 
_symmetry_space_group_name_H-M    'P1' 
_symmetry_Int_Tables_number       1 
_symmetry_cell_setting            triclinic 
loop_ 
_symmetry_equiv_pos_as_xyz 
  x,y,z 
_cell_length_a                    53.99651954 
_cell_length_b                    24.599911642933872 
_cell_length_c                    35.56863874413599 
_cell_angle_alpha                 87.11468899959266 
_cell_angle_beta                  90.32975160260987 
_cell_angle_gamma                 86.49739067403254 
loop_ 
_atom_site_label 
_atom_site_type_symbol 
_atom_site_fract_x 
_atom_site_fract_y 
_atom_site_fract_z 
_atom_site_charge 
C1          C  0.00201390  0.80689250  0.18260104     0.86100
C2          C  0.99013812  0.80691367  0.14337323    -0.54100
C3          C  0.97595416  0.76409902  0.13803772     0.09000
C4          C  0.97545612  0.72292061  0.17247737     0.20000
C5          C  0.98038035  0.80123553  0.21030810    -0.54800
C6          C  0.96610595  0.75792504  0.20491014     0.09100
C7          C  0.01659686  0.75080453  0.18688651    -0.54400
C8          C  0.00291013  0.70649689  0.18237423     0.09700
H9          H  0.99218090  0.83914608  0.12179364     0.14200
H10         H  0.96426622  0.68758178  0.16860995     0.00000
H11         H  0.97635711  0.83025293  0.23179763     0.14500
H12         H  0.03614463  0.74478206  0.19321267     0.14300
C13         C  0.49809793  0.36837300  0.67556817     0.86100
C14         C  0.48473862  0.31465563  0.67264225    -0.54100
C15         C  0.49908081  0.27251392  0.65917197     0.09000
C16         C  0.52574934  0.28673615  0.65061911     0.20000
C17         C  0.52106041  0.35138832  0.70022146    -0.54800
C18         C  0.53566627  0.30946335  0.68684729     0.09100
C19         C  0.50845270  0.37891150  0.63567771    -0.54400
C20         C  0.52286364  0.33639856  0.62252295     0.09700
H21         H  0.46573011  0.30845117  0.68003226     0.14200
H22         H  0.53745757  0.25196131  0.64031593     0.00000
H23         H  0.52568236  0.37147666  0.72560777     0.14500
H24         H  0.50544780  0.41779432  0.62004558     0.14300
O25         O  0.62351510  0.24369145  0.37766740    -0.81300
O26         O  0.66268258  0.21854611  0.21829252    -0.65900
O27         O  0.65830494  0.25792975  0.32063236    -1.12600
C28         C  0.60531045  0.40561480  0.26926229     1.05600
O29         O  0.66982215  0.30355839  0.20125199    -0.79200
O30         O  0.66748288  0.38659748  0.24884641    -0.66700
Ni31       Ni  0.65290720  0.20516845  0.36014112     1.34900
C32         C  0.66994603  0.39451064  0.28364497     0.84400
O33         O  0.68435785  0.17358395  0.28289244    -0.79700
O34         O  0.68172313  0.16208296  0.34587126    -0.90000
C35         C  0.66761638  0.25440894  0.19288019     0.83900
O36         O  0.63232866  0.15910521  0.33403436    -0.68200
O37         O  0.61746370  0.39920926  0.23888142    -0.87500
C38         C  0.62563338  0.15712714  0.29992323     0.84800
C39         C  0.69096557  0.14895095  0.31439000     1.06300
H40         H  0.62118753  0.28143433  0.25290978     0.38100
O41         O  0.63697738  0.29575459  0.26026115    -1.10100
O42         O  0.65840909  0.36882707  0.30941296    -0.66800
Ni43       Ni  0.63336608  0.31604225  0.31083161     1.26300
O44         O  0.63394761  0.18730658  0.27349452    -0.67000
O45         O  0.60874818  0.37425477  0.29882723    -0.79300
C46         C  0.62067214  0.29373122  0.38492638     0.84200
O47         O  0.62916999  0.33023508  0.36294885    -0.66500
Ni48       Ni  0.64360166  0.34938266  0.22188634     1.27400
Ni49       Ni  0.66078929  0.23517982  0.27032200     1.26100
H50         H  0.67367160  0.27352310  0.32657057     0.38700
C51         C  0.69926200  0.18984987  0.91758880     0.86100
C52         C  0.71545261  0.23668915  0.90500365    -0.54100
C53         C  0.72184799  0.23869889  0.86774666     0.09000
C54         C  0.71091646  0.19263434  0.84592614     0.20000
C55         C  0.67675906  0.19761417  0.89034475    -0.54800
C56         C  0.68280112  0.20011457  0.85306580     0.09100
C57         C  0.71332481  0.13795703  0.90525080    -0.54400
C58         C  0.71959450  0.13893662  0.86818312     0.09700
H59         H  0.72106519  0.26658222  0.92429889     0.14200
H60         H  0.71541783  0.19355178  0.81554418     0.00000
H61         H  0.65761057  0.20387402  0.89858019     0.14500
H62         H  0.71854421  0.10352522  0.92460344     0.14300
O63         O  0.83674283  0.73322891  0.71684161    -0.81300
O64         O  0.87176108  0.74595507  0.87815567    -0.65900
O65         O  0.87019352  0.71243458  0.77575446    -1.12600
C66         C  0.82372543  0.56321448  0.81618688     1.05600
O67         O  0.87676814  0.65963223  0.90002344    -0.79200
O68         O  0.88480814  0.58836902  0.84647103    -0.66700
Ni69       Ni  0.86433875  0.76841139  0.73744442     1.34900
C70         C  0.88931706  0.58018462  0.81218039     0.84400
O71         O  0.89339583  0.78750776  0.81793117    -0.79700
O72         O  0.89171243  0.80712560  0.75547343    -0.90000
C73         C  0.87920208  0.71022327  0.90309245     0.83900
O74         O  0.84176115  0.81680163  0.76275800    -0.68200
O75         O  0.83568640  0.56662319  0.84687031    -0.87500
C76         C  0.83512468  0.82034647  0.79674624     0.84800
C77         C  0.90016071  0.81418528  0.78844342     1.06300
H78         H  0.83168518  0.68979810  0.83912045     0.38100
O79         O  0.84793561  0.67400507  0.83324427    -1.10100
O80         O  0.87563136  0.60157664  0.78523268    -0.66800
Ni81       Ni  0.84759042  0.65564959  0.78142284     1.26300
O82         O  0.84302000  0.78600365  0.82280179    -0.67000
O83         O  0.82485340  0.59830690  0.78864374    -0.79300
C84         C  0.83792633  0.68439669  0.70646888     0.84200
O85         O  0.84663937  0.64528096  0.72835463    -0.66500
Ni86       Ni  0.85596415  0.61688529  0.87063033     1.27400
Ni87       Ni  0.87054932  0.73135920  0.82649289     1.26100
H88         H  0.88643883  0.69592515  0.77070282     0.38700
C89         C  0.79349137  0.72005226  0.43012121     0.86100
C90         C  0.77660272  0.67965759  0.41233250    -0.54100
C91         C  0.77390190  0.68630133  0.37426764     0.09000
C92         C  0.78787029  0.73391463  0.35681891     0.20000
C93         C  0.81776969  0.71297322  0.40777425    -0.54800
C94         C  0.81505691  0.72007387  0.36946034     0.09100
C95         C  0.78218653  0.77661399  0.41691263    -0.54400
C96         C  0.77943718  0.78435730  0.37880612     0.09700
H97         H  0.76862872  0.64553211  0.42705858     0.14200
H98         H  0.78524724  0.73976142  0.32586354     0.00000
H99         H  0.83571457  0.70538014  0.42148962     0.14500
H100        H  0.77718563  0.80838455  0.43610697     0.14300
C101        C  0.50485838  0.86488114  0.28893844     0.86100
C102        C  0.52009649  0.81021678  0.28777265    -0.54100
C103        C  0.50688309  0.76486535  0.29364219     0.09000
C104        C  0.47873768  0.77888278  0.29922313     0.20000
C105        C  0.48411791  0.86172052  0.25986884    -0.54800
C106        C  0.47044164  0.81712220  0.26478978     0.09100
C107        C  0.49155833  0.86071726  0.32722037    -0.54400
C108        C  0.47806002  0.81620191  0.33288047     0.09700
H109        H  0.53982578  0.80792295  0.28203716     0.14200
H110        H  0.46746719  0.74286953  0.30359589     0.00000
H111        H  0.48000855  0.89325199  0.23784312     0.14500
H112        H  0.49266107  0.88885410  0.34937524     0.14300
C113        C  0.00446785  0.14329495  0.80252628     0.86100
C114        C  0.98917643  0.19881398  0.79828546    -0.54100
C115        C  0.00253928  0.24374983  0.80270608     0.09000
C116        C  0.03034288  0.22901741  0.81026351     0.20000
C117        C  0.02533168  0.14908208  0.77363988    -0.54800
C118        C  0.03878529  0.19369542  0.77733064     0.09100
C119        C  0.01705713  0.14549859  0.84131799    -0.54400
C120        C  0.03053831  0.18999734  0.84547916     0.09700
H121        H  0.96939320  0.20383599  0.79360449     0.14200
H122        H  0.04157345  0.26460554  0.81415599     0.00000
H123        H  0.02908808  0.12032696  0.75188259     0.14500
H124        H  0.01509671  0.11474010  0.86392376     0.14300
O125        O  0.12049757  0.29861550  0.09916532    -0.81300
O126        O  0.15857943  0.30747160  0.26155832    -0.65900
O127        O  0.15537148  0.27429775  0.15786577    -1.12600
C128        C  0.10566099  0.13469372  0.20307190     1.05600
O129        O  0.16817025  0.22070905  0.27695089    -0.79200
O130        O  0.16940459  0.14337090  0.22427780    -0.66700
Ni131      Ni  0.14955728  0.32938563  0.11899720     1.34900
C132        C  0.17133813  0.13704706  0.18915393     0.84400
O133        O  0.18007287  0.35118160  0.19855079    -0.79700
O134        O  0.17809091  0.36419202  0.13535184    -0.90000
C135        C  0.16537557  0.27019274  0.28620256     0.83900
O136        O  0.12857440  0.37902457  0.14556313    -0.68200
O137        O  0.11917187  0.13399161  0.23279107    -0.87500
C138        C  0.12144189  0.38119557  0.17939443     0.84800
C139        C  0.18730893  0.37331982  0.16736596     1.06300
H140        H  0.11890910  0.25358367  0.22505593     0.38100
O141        O  0.13464825  0.23757046  0.21700142    -1.10100
O142        O  0.15705174  0.16371346  0.16521838    -0.66800
Ni143      Ni  0.13118216  0.22155559  0.16554686     1.26300
O144        O  0.12941435  0.34739623  0.20561050    -0.67000
O145        O  0.10723496  0.16914739  0.17541644    -0.79300
C146        C  0.11878736  0.24942860  0.09060227     0.84200
O147        O  0.12706545  0.21080095  0.11303789    -0.66500
Ni148      Ni  0.14372031  0.17936439  0.25276137     1.27400
Ni149      Ni  0.15723942  0.29407482  0.20892580     1.26100
H150        H  0.17105582  0.25565162  0.15220309     0.38700
C151        C  0.21907567  0.38323467  0.61125601     0.86100
C152        C  0.19565332  0.37045298  0.63377131    -0.54100
C153        C  0.18569872  0.32178565  0.62671566     0.09000
C154        C  0.19931607  0.29262775  0.59424113     0.20000
C155        C  0.23662789  0.33150997  0.61651669    -0.54800
C156        C  0.22644654  0.28402015  0.60789848     0.09100
C157        C  0.21006425  0.38257881  0.57007755    -0.54400
C158        C  0.19979879  0.33566402  0.56093463     0.09700
H159        H  0.18757402  0.39908209  0.65302931     0.14200
H160        H  0.19164122  0.25402570  0.58659117     0.00000
H161        H  0.25556460  0.33244178  0.62681048     0.14500
H162        H  0.21144949  0.41530172  0.54891713     0.14300
O163        O  0.37746377  0.77101594  0.59013474    -0.81300
O164        O  0.34788047  0.77420403  0.75477709    -0.65900
O165        O  0.34670145  0.80597775  0.64826771    -1.12600
C166        C  0.39978150  0.94240640  0.67483640     1.05600
O167        O  0.34152727  0.86256244  0.76496961    -0.79200
O168        O  0.33528469  0.92983423  0.70232882    -0.66700
Ni169      Ni  0.34742471  0.74984297  0.61390718     1.34900
C170        C  0.33414546  0.94026343  0.66701630     0.84400
O171        O  0.32371978  0.73000472  0.69742528    -0.79700
O172        O  0.31757289  0.72447987  0.63512906    -0.90000
C173        C  0.34221568  0.81258365  0.77668110     0.83900
O174        O  0.36686768  0.69555320  0.64323600    -0.68200
O175        O  0.38529003  0.94712671  0.70301133    -0.87500
C176        C  0.37955653  0.69693194  0.67326728     0.84800
C177        C  0.31273327  0.71118843  0.66923273     1.06300
H178        H  0.38664609  0.82508688  0.71117744     0.38100
O179        O  0.37086765  0.84144890  0.70215582    -1.10100
O180        O  0.34898932  0.91674412  0.64425520    -0.66800
Ni181      Ni  0.37308046  0.85439639  0.64895003     1.26300
O182        O  0.37493709  0.73272569  0.69746493    -0.67000
O183        O  0.39919638  0.90297405  0.65300508    -0.79300
C184        C  0.38247447  0.81799899  0.57696981     0.84200
O185        O  0.37637265  0.86026666  0.59487066    -0.66500
Ni186      Ni  0.36326237  0.90197376  0.73179570     1.27400
Ni187      Ni  0.34727718  0.78652138  0.70082415     1.26100
H188        H  0.33133774  0.82731275  0.64317905     0.38700
C189        C  0.28058927  0.71087106  0.10715146     0.86100
C190        C  0.30471254  0.72327209  0.12774050    -0.54100
C191        C  0.31431643  0.77148472  0.11653185     0.09000
C192        C  0.29973768  0.80222772  0.08375852     0.20000
C193        C  0.26344075  0.76255466  0.11145093    -0.54800
C194        C  0.27319706  0.81031359  0.09916523     0.09100
C195        C  0.28824593  0.71263132  0.06555327    -0.54400
C196        C  0.29802663  0.76011863  0.05299073     0.09700
H197        H  0.31407325  0.69742663  0.14948623     0.14200
H198        H  0.30781642  0.84079645  0.07384752     0.00000
H199        H  0.24541138  0.76146982  0.12475267     0.14500
H200        H  0.28604622  0.67903295  0.04738772     0.14300
C201        C  0.32960069  0.74118632  0.95826027    -0.11800
C202        C  0.31618076  0.78025634  0.93484118     0.14800
C203        C  0.29718747  0.81379335  0.95087649     0.01700
C204        C  0.29242992  0.80811884  0.98969220    -0.16100
C205        C  0.30584041  0.76895875  0.01306538    -0.10900
C206        C  0.32473517  0.73534614  0.99697049     0.08400
C207        C  0.32347425  0.78724352  0.89449906     0.09400
S208        S  0.27826182  0.86449755  0.92349254    -0.25200
H209        H  0.27760853  0.83338349  0.00156593     0.19700
S210        S  0.34359831  0.68483784  0.02450094    -0.30900
H211        H  0.34434405  0.71570012  0.94639374     0.10000
C212        C  0.33768902  0.83065520  0.88194646     0.03200
C213        C  0.34385112  0.83677652  0.84368418    -0.13200
C214        C  0.33578641  0.80105417  0.81702660    -0.08900
C215        C  0.32113470  0.75806729  0.82963660     0.06700
C216        C  0.31564778  0.75090033  0.86819604    -0.14000
S217        S  0.34802849  0.87843045  0.91474858    -0.30900
H218        H  0.35504413  0.86987323  0.83440881     0.10900
S219        S  0.30726172  0.71397917  0.79767415    -0.28000
H220        H  0.30432000  0.71804839  0.87756251     0.08100
H221        H  0.34312886  0.71338049  0.05777013     0.26600
H222        H  0.35730138  0.91557750  0.88778382     0.21400
H223        H  0.30100588  0.75583383  0.77021696     0.26700
H224        H  0.28140950  0.84154864  0.88835073     0.15500
C225        C  0.28935875  0.57063719  0.67590164    -0.11800
C226        C  0.26551087  0.58000618  0.66002958     0.14800
C227        C  0.25548115  0.63456881  0.65494661     0.01700
C228        C  0.27055762  0.67780815  0.66154628    -0.16100
C229        C  0.29503272  0.66804625  0.67494306    -0.10900
C230        C  0.30399324  0.61378189  0.68377134     0.08400
C231        C  0.25276776  0.53191157  0.64701576     0.09400
S232        S  0.22409777  0.65210832  0.63881149    -0.25200
H233        H  0.26352111  0.71932868  0.65460441     0.19700
S234        S  0.33519297  0.59686846  0.70054943    -0.30900
H235        H  0.29717257  0.52917857  0.68049370     0.10000
C236        C  0.24734412  0.52567811  0.60870997     0.03200
C237        C  0.23636172  0.47844471  0.59768709    -0.13200
C238        C  0.23130177  0.43516800  0.62376319    -0.08900
C239        C  0.23882708  0.44037326  0.66184019     0.06700
C240        C  0.24863272  0.48880834  0.67296158    -0.14000
S241        S  0.25621069  0.57584822  0.57316170    -0.30900
H242        H  0.23295445  0.47540708  0.56815564     0.10900
S243        S  0.23745221  0.38487429  0.69681603    -0.28000
H244        H  0.25372515  0.49282008  0.70213230     0.08100
H245        H  0.33445931  0.63685743  0.72746044     0.26600
H246        H  0.24423117  0.55445235  0.54247841     0.21400
H247        H  0.25140337  0.40724439  0.72507193     0.26700
H248        H  0.21458265  0.60116031  0.64758613     0.15500
C249        C  0.25330618  0.13733597  0.59741635    -0.11800
C250        C  0.26631115  0.12722401  0.63154774     0.14800
C251        C  0.26580566  0.16843511  0.65790588     0.01700
C252        C  0.25234285  0.21820829  0.64962180    -0.16100
C253        C  0.23982948  0.22919005  0.61502048    -0.10900
C254        C  0.24040434  0.18772353  0.58871111     0.08400
C255        C  0.28178631  0.07529181  0.63754823     0.09400
S256        S  0.28223337  0.16080866  0.70239648    -0.25200
H257        H  0.25190464  0.24906583  0.67034633     0.19700
S258        S  0.22708844  0.19794096  0.54229522    -0.30900
H259        H  0.25395306  0.10630978  0.57679816     0.10000
C260        C  0.27565849  0.03397755  0.66418637     0.03200
C261        C  0.29242646  0.98858353  0.67155617    -0.13200
C262        C  0.31527948  0.98328469  0.65279448    -0.08900
C263        C  0.32069680  0.02375490  0.62480810     0.06700
C264        C  0.30400602  0.06900782  0.61760579    -0.14000
S265        S  0.24681155  0.03976346  0.68950445    -0.30900
H266        H  0.28804507  0.95772317  0.69285223     0.10900
S267        S  0.34964113  0.02323884  0.60012352    -0.28000
H268        H  0.30883247  0.10078862  0.59721664     0.08100
H269        H  0.23727156  0.24880855  0.53640195     0.26600
H270        H  0.25115010  0.99252028  0.71314869     0.21400
H271        H  0.34566676  0.97365715  0.58371691     0.26700
H272        H  0.30166120  0.12496792  0.69092257     0.15500
C273        C  0.16530729  0.30521717  0.47055565    -0.11800
C274        C  0.18426337  0.30961601  0.44389661     0.14800
C275        C  0.20798441  0.32299372  0.45595014     0.01700
C276        C  0.21216267  0.33173110  0.49397832    -0.16100
C277        C  0.19341899  0.32630991  0.52095256    -0.10900
C278        C  0.16951105  0.31416057  0.50871707     0.08400
C279        C  0.17883833  0.29996636  0.40381534     0.09400
S280        S  0.23379155  0.32934647  0.42438632    -0.25200
H281        H  0.23049549  0.34185638  0.50281388     0.19700
S282        S  0.14318758  0.31343317  0.53943659    -0.30900
H283        H  0.14695147  0.29580590  0.46137375     0.10000
C284        C  0.17816831  0.24673592  0.39137295     0.03200
C285        C  0.17418850  0.23880414  0.35305406    -0.13200
C286        C  0.17057638  0.28298553  0.32626990    -0.08900
C287        C  0.17096940  0.33670390  0.33927647     0.06700
C288        C  0.17499610  0.34438233  0.37770024    -0.14000
S289        S  0.18290181  0.18864404  0.42433921    -0.30900
H290        H  0.17377008  0.19750667  0.34407184     0.10900
S291        S  0.16684215  0.39736082  0.30880212    -0.28000
H292        H  0.17546938  0.38542727  0.38730643     0.08100
H293        H  0.15117133  0.35337861  0.56286463     0.26600
H294        H  0.17767547  0.14854581  0.39910744     0.21400
H295        H  0.18536663  0.38001552  0.28362400     0.26700
H296        H  0.22678395  0.29064918  0.39926712     0.15500
C297        C  0.23525515  0.59405707  0.11401703    -0.11800
C298        C  0.24467829  0.56148702  0.14493866     0.14800
C299        C  0.26582268  0.57732154  0.16383412     0.01700
C300        C  0.27682275  0.62531726  0.15189802    -0.16100
C301        C  0.26794473  0.65824174  0.12021087    -0.10900
C302        C  0.24640105  0.64192750  0.10152531     0.08400
C303        C  0.23266239  0.50992374  0.15518991     0.09400
S304        S  0.27996323  0.53777621  0.20329898    -0.25200
H305        H  0.29242545  0.63572120  0.16832168     0.19700
S306        S  0.23258253  0.68148954  0.06161315    -0.30900
H307        H  0.21903420  0.58152078  0.09951337     0.10000
C308        C  0.21783596  0.50328723  0.18753305     0.03200
C309        C  0.20481632  0.45558714  0.19317682    -0.13200
C310        C  0.20642696  0.41436301  0.16714333    -0.08900
C311        C  0.22316198  0.41930402  0.13679486     0.06700
C312        C  0.23562450  0.46710624  0.13082758    -0.14000
S313        S  0.21401834  0.55696996  0.22014672    -0.30900
H314        H  0.19203760  0.45219486  0.21641149     0.10900
S315        S  0.22923254  0.36621998  0.10426896    -0.28000
H316        H  0.24760764  0.47125678  0.10663626     0.08100
H317        H  0.21266256  0.64868480  0.05544673     0.26600
H318        H  0.20181823  0.52642586  0.24810621     0.21400
H319        H  0.22482428  0.32299972  0.13033087     0.26700
H320        H  0.27394017  0.48649189  0.19152198     0.15500
C321        C  0.22057187  0.01761326  0.18243893    -0.11800
C322        C  0.22077196  0.01038563  0.14347971     0.14800
C323        C  0.20612542  0.04761579  0.11983324     0.01700
C324        C  0.19085349  0.08854052  0.13554806    -0.16100
C325        C  0.19016747  0.09557629  0.17467345    -0.10900
C326        C  0.20621661  0.06030006  0.19809925     0.08400
C327        C  0.23520104  0.96200970  0.12879403     0.09400
S328        S  0.20614546  0.04576244  0.06920074    -0.25200
H329        H  0.17930610  0.11518059  0.11660312     0.19700
S330        S  0.20967987  0.06700073  0.24801355    -0.30900
H331        H  0.23177889  0.98958187  0.20096575     0.10000
C332        C  0.26102183  0.95247848  0.13516420     0.03200
C333        C  0.27322316  0.90366775  0.12400019    -0.13200
C334        C  0.26040207  0.86475216  0.10532632    -0.08900
C335        C  0.23510706  0.87680823  0.09595997     0.06700
C336        C  0.22268238  0.92404728  0.10873703    -0.14000
S337        S  0.27862775  0.00299454  0.15664480    -0.30900
H338        H  0.29269251  0.89512124  0.13075262     0.10900
S339        S  0.21788279  0.83454132  0.06662796    -0.28000
H340        H  0.20302979  0.93141695  0.10277705     0.08100
H341        H  0.21402810  0.12284475  0.24408624     0.26600
H342        H  0.30215253  0.97602155  0.15293113     0.21400
H343        H  0.23846357  0.81520524  0.04599392     0.26700
H344        H  0.23074136  0.02413405  0.06642241     0.15500
C345        C  0.07762599  0.23685821  0.69248736    -0.11800
C346        C  0.10155569  0.23384056  0.70848880     0.14800
C347        C  0.10460961  0.21370929  0.74636866     0.01700
C348        C  0.08379163  0.20165679  0.76778095    -0.16100
C349        C  0.05983860  0.20625281  0.75217215    -0.10900
C350        C  0.05692029  0.22164474  0.71332544     0.08400
C351        C  0.12255295  0.25603067  0.68646688     0.09400
S352        S  0.13457450  0.20105334  0.76899734    -0.25200
H353        H  0.08645417  0.18667928  0.79666952     0.19700
S354        S  0.02777831  0.22323050  0.68782139    -0.30900
H355        H  0.07492770  0.25210641  0.66355675     0.10000
C356        C  0.12949490  0.23808374  0.65072732     0.03200
C357        C  0.14968363  0.26057007  0.63196415    -0.13200
C358        C  0.16423566  0.29891615  0.64850872    -0.08900
C359        C  0.15794553  0.31328640  0.68573172     0.06700
C360        C  0.13650410  0.29497546  0.70269867    -0.14000
S361        S  0.11348788  0.18488333  0.62936453    -0.30900
H362        H  0.15404862  0.24713576  0.60435679     0.10900
S363        S  0.17814110  0.34596043  0.71661544    -0.28000
H364        H  0.13161496  0.30842360  0.73040006     0.08100
H365        H  0.01152458  0.21929378  0.71822616     0.26600
H366        H  0.12906004  0.17916889  0.59805800     0.21400
H367        H  0.19883398  0.31259271  0.70633588     0.26700
H368        H  0.14767274  0.18960762  0.73596507     0.15500
C369        C  0.09594402  0.18150718  0.00312770    -0.11800
C370        C  0.08092706  0.22426036  0.98583868     0.14800
C371        C  0.07823191  0.27452241  0.00319779     0.01700
C372        C  0.09031381  0.28073506  0.03748270    -0.16100
C373        C  0.10584145  0.23843308  0.05479904    -0.10900
C374        C  0.10872914  0.18818969  0.03687877     0.08400
C375        C  0.06825324  0.21538518  0.94976992     0.09400
S376        S  0.05984482  0.33257301  0.98291294    -0.25200
H377        H  0.08772753  0.31956045  0.05046832     0.19700
S378        S  0.12925667  0.13188603  0.05421343    -0.30900
H379        H  0.09817407  0.14295460  0.98968689     0.10000
C380        C  0.08121453  0.21563467  0.91548575     0.03200
C381        C  0.06833662  0.20889656  0.88179501    -0.13200
C382        C  0.04281659  0.20116805  0.88161877    -0.08900
C383        C  0.02976647  0.20267079  0.91600480     0.06700
C384        C  0.04263787  0.20906908  0.94963412    -0.14000
S385        S  0.11410632  0.22521729  0.91459836    -0.30900
H386        H  0.07827750  0.20876813  0.85561690     0.10900
S387        S  0.99656963  0.19953450  0.91864662    -0.28000
H388        H  0.03254613  0.21019874  0.97586383     0.08100
H389        H  0.14938737  0.16452230  0.05952721     0.26600
H390        H  0.11663781  0.22681316  0.87521598     0.21400
H391        H  0.99177767  0.22979900  0.88459065     0.26700
H392        H  0.06353491  0.32073473  0.94504078     0.15500
C393        C  0.35908374  0.79778300  0.19524514    -0.11800
C394        C  0.38033302  0.81155055  0.17531671     0.14800
C395        C  0.37864956  0.81926571  0.13558325     0.01700
C396        C  0.35658348  0.80850598  0.11678705    -0.16100
C397        C  0.33578218  0.79213847  0.13690004    -0.10900
C398        C  0.33675115  0.79033875  0.17674967     0.08400
C399        C  0.40391259  0.81494912  0.19706675     0.09400
S400        S  0.40388504  0.84267141  0.10736434    -0.25200
H401        H  0.35587290  0.81156563  0.08629614     0.19700
S402        S  0.30999313  0.77989279  0.20583239    -0.30900
H403        H  0.35987545  0.79282367  0.22568833     0.10000
C404        C  0.40552418  0.85054887  0.22682991     0.03200
C405        C  0.42712578  0.84851424  0.24914246    -0.13200
C406        C  0.44758255  0.81271832  0.24197955    -0.08900
C407        C  0.44644268  0.77877644  0.21118511     0.06700
C408        C  0.42448418  0.77929410  0.18972866    -0.14000
S409        S  0.38063976  0.90082874  0.23529065    -0.30900
H410        H  0.42840598  0.87597613  0.27184592     0.10900
S411        S  0.47236865  0.73512824  0.19699864    -0.28000
H412        H  0.42348380  0.75193171  0.16690058     0.08100
H413        H  0.29262439  0.80479059  0.17975577     0.26600
H414        H  0.39008647  0.91815527  0.26932635     0.21400
H415        H  0.49107482  0.76730215  0.20955193     0.26700
H416        H  0.41463202  0.87194055  0.13555139     0.15500
C417        C  0.46279290  0.81487879  0.43713639    -0.11800
C418        C  0.43702249  0.81116472  0.43652818     0.14800
C419        C  0.42504692  0.80361348  0.40183226     0.01700
C420        C  0.43892252  0.80237971  0.36847334    -0.16100
C421        C  0.46469373  0.80712794  0.36906589    -0.10900
C422        C  0.47671726  0.81167976  0.40423354     0.08400
C423        C  0.42345872  0.81413074  0.47277372     0.09400
S424        S  0.39214029  0.79603495  0.39829846    -0.25200
H425        H  0.42945235  0.79924090  0.34179386     0.19700
S426        S  0.50992518  0.81246319  0.40916414    -0.30900
H427        H  0.47220027  0.81963505  0.46367124     0.10000
C428        C  0.42654404  0.77173284  0.50079729     0.03200
C429        C  0.41357817  0.77567614  0.53464298    -0.13200
C430        C  0.39707652  0.82063301  0.54144160    -0.08900
C431        C  0.39427951  0.86354562  0.51338225     0.06700
C432        C  0.40766142  0.86006293  0.47964702    -0.14000
S433        S  0.44627629  0.71134225  0.49297627    -0.30900
H434        H  0.41621249  0.74301488  0.55597236     0.10900
S435        S  0.37322017  0.92236827  0.51791353    -0.28000
H436        H  0.40536195  0.89291306  0.45821679     0.08100
H437        H  0.51468879  0.77657200  0.38024994     0.26600
H438        H  0.44291474  0.68456861  0.52829146     0.21400
H439        H  0.35387478  0.89261192  0.53308937     0.26700
H440        H  0.38970170  0.76981255  0.43400821     0.15500
C441        C  0.93400162  0.93364928  0.82383130    -0.11800
C442        C  0.95055961  0.94323577  0.79432737     0.14800
C443        C  0.95170274  0.90763344  0.76433779     0.01700
C444        C  0.93582021  0.86460230  0.76402232    -0.16100
C445        C  0.91828021  0.85667848  0.79253550    -0.10900
C446        C  0.91758935  0.89179228  0.82299565     0.08400
C447        C  0.96445393  0.99362579  0.79431654     0.09400
S448        S  0.97227849  0.91580005  0.72497822    -0.25200
H449        H  0.93667965  0.83795260  0.74065164     0.19700
S450        S  0.89506152  0.88874573  0.86020949    -0.30900
H451        H  0.93291948  0.96107712  0.84676751     0.10000
C452        C  0.95200428  0.04507654  0.78759919     0.03200
C453        C  0.96501629  0.09244012  0.78980209    -0.13200
C454        C  0.99062578  0.09045737  0.79873189    -0.08900
C455        C  0.00320755  0.03786256  0.80414389     0.06700
C456        C  0.98995207  0.99045625  0.80211408    -0.14000
S457        S  0.91938207  0.05040312  0.77506428    -0.30900
H458        H  0.95466043  0.13047726  0.78386806     0.10900
S459        S  0.03622239  0.02993020  0.81391915    -0.28000
H460        H  0.99937204  0.95058505  0.80698034     0.08100
H461        H  0.87489932  0.88016872  0.83654597     0.26600
H462        H  0.91584971  0.10744355  0.77589052     0.21400
H463        H  0.03859423  0.97263716  0.81468050     0.26700
H464        H  0.97229350  0.97292557  0.72469121     0.15500
C465        C  0.92957148  0.46148488  0.77586807    -0.11800
C466        C  0.94746773  0.45375668  0.80468626     0.14800
C467        C  0.94817318  0.49225600  0.83266066     0.01700
C468        C  0.93026972  0.53596854  0.83210549    -0.16100
C469        C  0.91109380  0.54191102  0.80479738    -0.10900
C470        C  0.91141722  0.50477428  0.77558609     0.08400
C471        C  0.96272408  0.40156186  0.80721257     0.09400
S472        S  0.96970080  0.48537197  0.87193645    -0.25200
H473        H  0.93052240  0.56398244  0.85465245     0.19700
S474        S  0.88755283  0.50581146  0.73998937    -0.30900
H475        H  0.92889488  0.43164102  0.75453228     0.10000
C476        C  0.95363068  0.35483836  0.82537872     0.03200
C477        C  0.96739772  0.30476202  0.82437666    -0.13200
C478        C  0.99003044  0.29967985  0.80488824    -0.08900
C479        C  0.99938193  0.34747519  0.78771837     0.06700
C480        C  0.98567828  0.39762572  0.78914106    -0.14000
S481        S  0.92410973  0.35884592  0.84910883    -0.30900
H482        H  0.96027775  0.26917276  0.83863967     0.10900
S483        S  0.02755446  0.34735229  0.76113629    -0.28000
H484        H  0.99257866  0.43365613  0.77501510     0.08100
H485        H  0.89140299  0.55955653  0.72694570     0.26600
H486        H  0.92263382  0.30250057  0.85684583     0.21400
H487        H  0.02178830  0.30124082  0.74242840     0.26700
H488        H  0.98761592  0.44987950  0.85610589     0.15500
C489        C  0.79742114  0.69568167  0.61946483    -0.11800
C490        C  0.81463897  0.68077312  0.59180552     0.14800
C491        C  0.83852113  0.65890785  0.60317785     0.01700
C492        C  0.84527686  0.65678900  0.64137121    -0.16100
C493        C  0.82844108  0.67451029  0.66866922    -0.10900
C494        C  0.80393261  0.69169715  0.65770238     0.08400
C495        C  0.80788020  0.69229971  0.55145868     0.09400
S496        S  0.86138540  0.63444337  0.57027161    -0.25200
H497        H  0.86410812  0.64339568  0.64964686     0.19700
S498        S  0.78036871  0.70988119  0.69134542    -0.30900
H499        H  0.77894204  0.71165085  0.61115204     0.10000
C500        C  0.78888221  0.66587641  0.53402912     0.03200
C501        C  0.78372441  0.67707681  0.49564116    -0.13200
C502        C  0.79751652  0.71342849  0.47325407    -0.08900
C503        C  0.81512720  0.74344716  0.49207859     0.06700
C504        C  0.82041361  0.73162782  0.53047724    -0.14000
S505        S  0.77139608  0.61666806  0.56032217    -0.30900
H506        H  0.76834769  0.65764990  0.48408117     0.10900
S507        S  0.83097383  0.79771017  0.46817926    -0.28000
H508        H  0.83449588  0.75312453  0.54436797     0.08100
H509        H  0.79053720  0.67571734  0.72115949     0.26600
H510        H  0.76030905  0.59446921  0.52914631     0.21400
H511        H  0.83815226  0.82299442  0.50079926     0.26700
H512        H  0.84438395  0.61961578  0.54308488     0.15500
C513        C  0.74234796  0.00460794  0.82708686    -0.11800
C514        C  0.76784270  0.00333329  0.83559570     0.14800
C515        C  0.77724688  0.04808518  0.85321794     0.01700
C516        C  0.76127000  0.09283761  0.86155161    -0.16100
C517        C  0.73577326  0.09387332  0.85353074    -0.10900
C518        C  0.72619458  0.04868065  0.83667706     0.08400
C519        C  0.78438041  0.95550233  0.82547777     0.09400
S520        S  0.80928304  0.04909002  0.86738656    -0.25200
H521        H  0.76863737  0.12636264  0.87580548     0.19700
S522        S  0.69352502  0.04404639  0.82799733    -0.30900
H523        H  0.73490098  0.97036846  0.81378797     0.10000
C524        C  0.78376144  0.90415063  0.84494170     0.03200
C525        C  0.80051734  0.86087180  0.83535748    -0.13200
C526        C  0.81786200  0.86748448  0.80634385    -0.08900
C527        C  0.81859905  0.91967954  0.78742015     0.06700
C528        C  0.80176558  0.96240679  0.79683376    -0.14000
S529        S  0.76208127  0.89421428  0.88275934    -0.30900
H530        H  0.80001551  0.82159768  0.85039373     0.10900
S531        S  0.84142930  0.93599888  0.75248328    -0.28000
H532        H  0.80261707  0.00201375  0.78225681     0.08100
H533        H  0.68572190  0.06676482  0.86175058     0.26600
H534        H  0.76827478  0.83833175  0.89023212     0.23400
H535        H  0.86142133  0.90909477  0.77268428     0.26700
H536        H  0.81134974  0.99398713  0.88032762     0.15500
C537        C  0.76818253  0.32496945  0.81295831    -0.11800
C538        C  0.76302637  0.37635320  0.82775950     0.14800
C539        C  0.74327068  0.38258430  0.85326628     0.01700
C540        C  0.72950260  0.33797938  0.86366696    -0.16100
C541        C  0.73542779  0.28553455  0.85080239    -0.10900
C542        C  0.75496082  0.27935657  0.82460536     0.08400
C543        C  0.77978905  0.42146584  0.81925845     0.09400
S544        S  0.73555573  0.44569187  0.87542230    -0.25200
H545        H  0.71453006  0.34415437  0.88341310     0.19700
S546        S  0.76488503  0.21329511  0.80830114    -0.30900
H547        H  0.78343932  0.32022811  0.79355103     0.10000
C548        C  0.80409478  0.41887509  0.83420882     0.03200
C549        C  0.81808414  0.46511846  0.83127332    -0.13200
C550        C  0.80857763  0.51459793  0.81356200    -0.08900
C551        C  0.78469803  0.51616999  0.79670651     0.06700
C552        C  0.77067494  0.46968671  0.79955855    -0.14000
S553        S  0.81683876  0.35795449  0.85962396    -0.30900
H554        H  0.83641799  0.46313798  0.84395602     0.10900
S555        S  0.77035144  0.57709662  0.77378503    -0.28000
H556        H  0.75202316  0.47195765  0.78794447     0.08100
H557        H  0.78432751  0.23038713  0.78529578     0.26600
H558        H  0.84150519  0.37323790  0.86086703     0.21400
H559        H  0.77724921  0.61141637  0.80202065     0.26700
H560        H  0.76023795  0.45887944  0.88103599     0.15500
C561        C  0.57225157  0.08470180  0.25843451    -0.11800
C562        C  0.57534221  0.03383416  0.27799644     0.14800
C563        C  0.59566745  0.02289798  0.30289978     0.01700
C564        C  0.61165976  0.06397878  0.30921299    -0.16100
C565        C  0.60812172  0.11579782  0.29088039    -0.10900
C566        C  0.58831141  0.12595495  0.26477985     0.08400
C567        C  0.55503019  0.99659818  0.27719195     0.09400
S568        S  0.60154534  0.95839845  0.32895605    -0.25200
H569        H  0.62704029  0.05539251  0.32877541     0.19700
S570        S  0.58131425  0.19158852  0.24108258    -0.30900
H571        H  0.55638260  0.09332324  0.23981794     0.10000
C572        C  0.53753819  0.99628905  0.30612273     0.03200
C573        C  0.52024952  0.95646146  0.30768796    -0.13200
C574        C  0.52061141  0.91447163  0.28195994    -0.08900
C575        C  0.53654604  0.91911767  0.25032706     0.06700
C576        C  0.55373890  0.95986261  0.24858476    -0.14000
S577        S  0.53729845  0.04671812  0.34147341    -0.30900
H578        H  0.50647249  0.95977204  0.32915308     0.10900
S579        S  0.53556784  0.87334279  0.21215303    -0.28000
H580        H  0.56683748  0.96200236  0.22570766     0.08100
H581        H  0.58651514  0.22153634  0.27255680     0.26600
H582        H  0.52054415  0.02197231  0.36610403     0.21400
H583        H  0.55215457  0.89999719  0.18825869     0.26700
H584        H  0.58903205  0.92623818  0.30442554     0.15500
C585        C  0.55169783  0.50482140  0.29633556    -0.11800
C586        C  0.55790032  0.55286699  0.27659825     0.14800
C587        C  0.57867501  0.55118424  0.25267016     0.01700
C588        C  0.59321541  0.50236572  0.25011479    -0.16100
C589        C  0.58747446  0.45426557  0.27054859    -0.10900
C590        C  0.56601231  0.45564196  0.29329873     0.08400
C591        C  0.54358213  0.60493728  0.28348302     0.09400
S592        S  0.58797273  0.61023523  0.22531244    -0.25200
H593        H  0.60958713  0.50243692  0.23263317     0.19700
S594        S  0.55561397  0.39614243  0.31869276    -0.30900
H595        H  0.53565969  0.50578384  0.31452190     0.10000
C596        C  0.51949656  0.61713084  0.26876873     0.03200
C597        C  0.50730052  0.66816003  0.27467268    -0.13200
C598        C  0.51900118  0.70829455  0.29379543    -0.08900
C599        C  0.54279476  0.69460360  0.31018925     0.06700
C600        C  0.55467646  0.64327166  0.30478801    -0.14000
S601        S  0.50498673  0.56921790  0.24025105    -0.30900
H602        H  0.48897589  0.67754064  0.26295045     0.10900
S603        S  0.55795721  0.74018340  0.33996350    -0.28000
H604        H  0.57285311  0.63280705  0.31706094     0.08100
H605        H  0.56216372  0.36013951  0.29036153     0.26600
H606        H  0.48127040  0.59635100  0.23895536     0.21400
H607        H  0.58181091  0.71389244  0.33897764     0.26700
H608        H  0.56426084  0.63693595  0.22150624     0.15500
C609        C  0.66912465  0.25926277  0.08572702    -0.11800
C610        C  0.68045905  0.20803998  0.07872924     0.14800
C611        C  0.68743460  0.17167374  0.10956710     0.01700
C612        C  0.68307578  0.18762770  0.14644351    -0.16100
C613        C  0.67162411  0.23898006  0.15342103    -0.10900
C614        C  0.66417312  0.27465955  0.12233106     0.08400
C615        C  0.68495942  0.19536292  0.03880064     0.09400
S616        S  0.70168822  0.10441429  0.10389069    -0.25200
H617        H  0.68872198  0.15971085  0.16987605     0.19700
S618        S  0.64717760  0.33937323  0.12695626    -0.30900
H619        H  0.66364284  0.28728566  0.06222684     0.10000
C620        C  0.66512920  0.19279934  0.01326518     0.03200
C621        C  0.66989294  0.18984121  0.97465507    -0.13200
C622        C  0.69430578  0.18849329  0.96039389    -0.08900
C623        C  0.71426426  0.18642223  0.98699494     0.06700
C624        C  0.70929464  0.19086451  0.02552574    -0.14000
S625        S  0.63357328  0.19262347  0.03006333    -0.30900
H626        H  0.65416332  0.18831615  0.95625794     0.10900
S627        S  0.74637570  0.17928817  0.97256395    -0.28000
H628        H  0.72442744  0.19227129  0.04547669     0.08100
H629        H  0.63195768  0.32052616  0.15619725     0.26600
H630        H  0.62213727  0.18443163  0.99534942     0.21400
H631        H  0.75725283  0.17771088  0.00865069     0.26700
H632        H  0.69066607  0.09646969  0.06885548     0.15500
C633        C  0.77313586  0.93532324  0.34801568    -0.11800
C634        C  0.74775503  0.94224447  0.33896339     0.14800
C635        C  0.73363332  0.89550099  0.33947067     0.01700
C636        C  0.74493704  0.84397654  0.35000642    -0.16100
C637        C  0.76994787  0.83776678  0.36119267    -0.10900
C638        C  0.78428491  0.88419830  0.35964470     0.08400
C639        C  0.73638522  0.99858551  0.33040891     0.09400
S640        S  0.70084227  0.89903854  0.32890943    -0.25200
H641        H  0.73375478  0.80881833  0.35149228     0.19700
S642        S  0.81662857  0.88264408  0.37319410    -0.30900
H643        H  0.78425798  0.97057413  0.34708859     0.10000
C644        C  0.73623135  0.03888916  0.35735203     0.03200
C645        C  0.72306631  0.08933773  0.34973849    -0.13200
C646        C  0.70952798  0.10095626  0.31595378    -0.08900
C647        C  0.71099603  0.06154924  0.28817416     0.06700
C648        C  0.72446233  0.01137394  0.29558562    -0.14000
S649        S  0.75070675  0.02478994  0.40307389    -0.30900
H650        H  0.72216562  0.11887706  0.37132357     0.10900
S651        S  0.69407291  0.07016632  0.24438486    -0.28000
H652        H  0.72480886  0.98102689  0.27451410     0.08100
H653        H  0.82162507  0.82630836  0.37590242     0.26600
H654        H  0.74920314  0.07882762  0.41446681     0.21400
H655        H  0.70576323  0.11789186  0.23329199     0.26700
H656        H  0.69539482  0.94904650  0.34547236     0.15500
C657        C  0.69426934  0.51745297  0.32921690    -0.11800
C658        C  0.71650447  0.52375067  0.30986684     0.14800
C659        C  0.72371260  0.48651444  0.28238220     0.01700
C660        C  0.70858934  0.44387056  0.27504040    -0.16100
C661        C  0.68618844  0.43773910  0.29426591    -0.10900
C662        C  0.67884965  0.47588260  0.32120601     0.08400
C663        C  0.73254563  0.56681477  0.32146161     0.09400
S664        S  0.75179107  0.49152695  0.25556908    -0.25200
H665        H  0.71423127  0.41555584  0.25386714     0.19700
S666        S  0.64927925  0.47641065  0.34437334    -0.30900
H667        H  0.68869910  0.54580004  0.35041960     0.10000
C668        C  0.72546950  0.62290928  0.31585833     0.03200
C669        C  0.74018075  0.66181268  0.33116022    -0.13200
C670        C  0.76148236  0.64544447  0.35254128    -0.08900
C671        C  0.76888872  0.58918488  0.35667025     0.06700
C672        C  0.75437869  0.55075925  0.34133255    -0.14000
S673        S  0.69742897  0.64472505  0.29003440    -0.30900
H674        H  0.73450439  0.70478676  0.32801532     0.10900
S675        S  0.79669115  0.56373190  0.38133962    -0.28000
H676        H  0.75986601  0.50775216  0.34564951     0.08100
H677        H  0.63595047  0.46951230  0.31111464     0.26600
H678        H  0.69860736  0.70084526  0.29514325     0.21400
H679        H  0.81004148  0.60684554  0.36676539     0.26700
H680        H  0.75237269  0.54855020  0.25606695     0.15500
C681        C  0.62793730  0.27284381  0.80026128    -0.11800
C682        C  0.62448016  0.23829933  0.77082414     0.14800
C683        C  0.64179313  0.19358868  0.76632925     0.01700
C684        C  0.66107990  0.18255622  0.79287530    -0.16100
C685        C  0.66386585  0.21605503  0.82325960    -0.10900
C686        C  0.64756970  0.26303580  0.82583324     0.08400
C687        C  0.60279066  0.25183855  0.74546931     0.09400
S688        S  0.64045922  0.14964116  0.72738549    -0.25200
H689        H  0.67384030  0.14739079  0.78996061     0.19700
S690        S  0.65123315  0.31340291  0.86020103    -0.30900
H691        H  0.61524463  0.30824516  0.80317483     0.10000
C692        C  0.58201351  0.21969856  0.74535912     0.03200
C693        C  0.56061434  0.23884309  0.72494009    -0.13200
C694        C  0.55949842  0.28943637  0.70480077    -0.08900
C695        C  0.58065719  0.32066018  0.70388014     0.06700
C696        C  0.60186528  0.30167345  0.72441397    -0.14000
S697        S  0.58190127  0.15643940  0.77337168    -0.30900
H698        H  0.54427817  0.21554585  0.72610565     0.10900
S699        S  0.58214929  0.38544913  0.67803687    -0.28000
H700        H  0.61774265  0.32658842  0.72463125     0.08100
H701        H  0.67722543  0.30910536  0.85927805     0.26600
H702        H  0.55934940  0.13962616  0.75928775     0.21400
H703        H  0.56204171  0.38119356  0.65374531     0.26700
H704        H  0.62882714  0.18875686  0.70186746     0.15500
C705        C  0.44489429  0.04048704  0.62914055    -0.11800
C706        C  0.45057936  0.07122205  0.65987812     0.14800
C707        C  0.43969918  0.05912351  0.69502896     0.01700
C708        C  0.42393782  0.01627476  0.69887835    -0.16100
C709        C  0.41784755  0.98542901  0.66818562    -0.10900
C710        C  0.42872044  0.99797645  0.63274681     0.08400
C711        C  0.46595257  0.11884087  0.65399297     0.09400
S712        S  0.44439341  0.09808363  0.73588315    -0.25200
H713        H  0.41600208  0.00769422  0.72629036     0.19700
S714        S  0.42271006  0.96267573  0.59075873    -0.30900
H715        H  0.45277683  0.05045137  0.60188192     0.10000
C716        C  0.48921716  0.12177416  0.67188733     0.03200
C717        C  0.50066966  0.17164833  0.67084523    -0.13200
C718        C  0.48912083  0.21865511  0.65283346    -0.08900
C719        C  0.46692672  0.21410650  0.63218599     0.06700
C720        C  0.45561024  0.16449177  0.63309819    -0.14000
S721        S  0.50382441  0.06274318  0.69721294    -0.30900
H722        H  0.51799741  0.17467286  0.68568090     0.10900
S723        S  0.45187889  0.27023291  0.60457098    -0.28000
H724        H  0.43799975  0.16207253  0.61868059     0.08100
H725        H  0.39692396  0.96429475  0.59556260     0.26600
H726        H  0.52376177  0.08926923  0.71211796     0.21400
H727        H  0.47395601  0.29480218  0.59515406     0.26700
H728        H  0.44498912  0.14896336  0.71616579     0.15500
C729        C  0.47751113  0.51768781  0.69588118    -0.11800
C730        C  0.45182821  0.51485010  0.69977946     0.14800
C731        C  0.44169868  0.46346043  0.70096267     0.01700
C732        C  0.45710974  0.41650210  0.69665471    -0.16100
C733        C  0.48269505  0.41883686  0.68896180    -0.10900
C734        C  0.49303716  0.47068904  0.69037315     0.08400
C735        C  0.43560946  0.56558171  0.69445304     0.09400
S736        S  0.40871925  0.45536874  0.70310715    -0.25200
H737        H  0.44806433  0.37882990  0.69763219     0.19700
S738        S  0.52576665  0.47879390  0.68309443    -0.30900
H739        H  0.48516353  0.55739469  0.69499205     0.10000
C740        C  0.42539881  0.59418867  0.72459587     0.03200
C741        C  0.40771437  0.63805635  0.71716790    -0.13200
C742        C  0.40011150  0.65394089  0.68004731    -0.08900
C743        C  0.41188549  0.62699023  0.64984584     0.06700
C744        C  0.42916576  0.58307591  0.65756274    -0.14000
S745        S  0.43418265  0.57325073  0.77239487    -0.30900
H746        H  0.39928617  0.65895046  0.74038088     0.10900
S747        S  0.40577311  0.64796036  0.60101953    -0.28000
H748        H  0.43745366  0.56114800  0.63467012     0.08100
H749        H  0.52432949  0.53596902  0.67798898     0.26600
H750        H  0.41634618  0.60737966  0.78985903     0.21400
H751        H  0.42363816  0.61249914  0.58481111     0.26700
H752        H  0.40297436  0.49942441  0.72571427     0.15500
C753        C  0.53908767  0.35520567  0.51829516    -0.11800
C754        C  0.56350613  0.33231394  0.51870071     0.14800
C755        C  0.57472239  0.31355270  0.55320060     0.01700
C756        C  0.56121340  0.31730146  0.58639229    -0.16100
C757        C  0.53646571  0.33859378  0.58621831    -0.10900
C758        C  0.52536054  0.35858630  0.55163883     0.08400
C759        C  0.57648062  0.32575935  0.48262236     0.09400
S760        S  0.60608103  0.28371066  0.55685214    -0.25200
H761        H  0.57009697  0.30248348  0.61263625     0.19700
S762        S  0.49341651  0.38517333  0.54886459    -0.30900
H763        H  0.53065777  0.36915247  0.49155994     0.10000
C764        C  0.57262183  0.28068691  0.46099637     0.03200
C765        C  0.58691810  0.27254281  0.42888437    -0.13200
C766        C  0.60540453  0.30798734  0.41799758    -0.08900
C767        C  0.60908433  0.35347394  0.43980783     0.06700
C768        C  0.59426257  0.36235502  0.47142852    -0.14000
S769        S  0.55046163  0.23174000  0.47549442    -0.30900
H770        H  0.58394699  0.23756081  0.41250708     0.10900
S771        S  0.63353340  0.39894300  0.43102402    -0.28000
H772        H  0.59739354  0.39659549  0.48850162     0.08100
H773        H  0.49262152  0.39803202  0.50988041     0.26600
H774        H  0.55269147  0.19987998  0.44379486     0.21400
H775        H  0.65140132  0.35770820  0.42203522     0.26700
H776        H  0.60645827  0.25916294  0.52204279     0.15500
C777        C  0.90016987  0.72796673  0.23646113    -0.11800
C778        C  0.90124880  0.73943313  0.27448415     0.14800
C779        C  0.92388010  0.75386214  0.29001513     0.01700
C780        C  0.94478300  0.75687329  0.26705047    -0.16100
C781        C  0.94363934  0.74768057  0.22829629    -0.10900
C782        C  0.92082668  0.73229607  0.21304048     0.08400
C783        C  0.87864268  0.73346464  0.29737939     0.09400
S784        S  0.92713341  0.77046155  0.33857815    -0.25200
H785        H  0.96204401  0.76765916  0.27954021     0.19700
S786        S  0.91654428  0.72080689  0.16376896    -0.30900
H787        H  0.88274596  0.71628859  0.22506698     0.10000
C788        C  0.85712598  0.76821101  0.29118018     0.03200
C789        C  0.83633715  0.76120177  0.31399504    -0.13200
C790        C  0.83655399  0.72029882  0.34313298    -0.08900
C791        C  0.85774956  0.68335245  0.34759005     0.06700
C792        C  0.87852465  0.69083881  0.32488797    -0.14000
S793        S  0.85658284  0.82344038  0.25564813    -0.30900
H794        H  0.82026713  0.78946030  0.31015030     0.10900
S795        S  0.85871133  0.62523081  0.38084993    -0.28000
H796        H  0.89492187  0.66342107  0.32851299     0.08100
H797        H  0.89210345  0.70418332  0.16554748     0.26600
H798        H  0.83123694  0.83946014  0.25860369     0.21400
H799        H  0.88106328  0.59968370  0.36871849     0.26700
H800        H  0.90256724  0.79140635  0.34299455     0.15500
C801        C  0.02623117  0.55670086  0.17255202    -0.11800
C802        C  0.04501714  0.55159746  0.20005922     0.14800
C803        C  0.04703825  0.59354799  0.22512010     0.01700
C804        C  0.03183569  0.64150347  0.22006967    -0.16100
C805        C  0.01439513  0.64946426  0.19025613    -0.10900
C806        C  0.01061526  0.60461795  0.16766512     0.08400
C807        C  0.06481979  0.50741342  0.19756049     0.09400
S808        S  0.06981735  0.58965152  0.26258104    -0.25200
H809        H  0.03428348  0.67380043  0.23911675     0.19700
S810        S  0.98715608  0.60745485  0.13133738    -0.30900
H811        H  0.02468654  0.52388467  0.15366318     0.10000
C812        C  0.06296936  0.45480207  0.21457445     0.03200
C813        C  0.08221393  0.41448816  0.20980902    -0.13200
C814        C  0.10311671  0.42591033  0.18809285    -0.08900
C815        C  0.10530008  0.47954288  0.17262895     0.06700
C816        C  0.08607546  0.51920947  0.17711557    -0.14000
S817        S  0.03617218  0.43924830  0.24223057    -0.30900
H818        H  0.08064481  0.37360900  0.22195790     0.10900
S819        S  0.13239472  0.50054658  0.14761475    -0.28000
H820        H  0.08771987  0.55993678  0.16462963     0.08100
H821        H  0.99221709  0.55495121  0.11827374     0.26600
H822        H  0.04363006  0.38436026  0.25138798     0.21400
H823        H  0.14944412  0.46618920  0.16907062     0.26700
H824        H  0.07054607  0.53268267  0.26859597     0.15500
C825        C  0.01841890  0.95814023  0.18577001    -0.11800
C826        C  0.04393850  0.95315544  0.19290441     0.14800
C827        C  0.05579030  0.90096500  0.19889116     0.01700
C828        C  0.04218758  0.85478775  0.19610476    -0.16100
C829        C  0.01645564  0.85854438  0.18775033    -0.10900
C830        C  0.00453399  0.91192473  0.18320868     0.08400
C831        C  0.05796906  0.00292640  0.19349939     0.09400
S832        S  0.08850414  0.89053871  0.20971254    -0.25200
H833        H  0.05250524  0.81637147  0.20082699     0.19700
S834        S  0.97161642  0.92276964  0.17388594    -0.30900
H835        H  0.00947113  0.99863374  0.18175949     0.10000
C836        C  0.07362330  0.01771847  0.16360704     0.03200
C837        C  0.08848703  0.06202265  0.16699450    -0.13200
C838        C  0.08798110  0.09174550  0.19970198    -0.08900
C839        C  0.07127101  0.07881450  0.22865951     0.06700
C840        C  0.05646458  0.03433530  0.22531628    -0.14000
S841        S  0.07491527  0.97964828  0.12145106    -0.30900
H842        H  0.10112057  0.07258107  0.14461751     0.10900
S843        S  0.06815303  0.11995380  0.26920856    -0.28000
H844        H  0.04408045  0.02307438  0.24784366     0.08100
H845        H  0.97064741  0.97993016  0.16884708     0.26600
H846        H  0.09112782  0.01286883  0.10138194     0.21400
H847        H  0.04807781  0.09377885  0.28546244     0.26700
H848        H  0.09006697  0.93697293  0.23086769     0.15500
C849        C  0.92710605  0.79180636  0.06056959    -0.11800
C850        C  0.93356032  0.74990491  0.03665790     0.14800
C851        C  0.95457441  0.71441299  0.04524944     0.01700
C852        C  0.96845846  0.72134095  0.07776760    -0.16100
C853        C  0.96113804  0.76087966  0.10309169    -0.10900
C854        C  0.94053554  0.79770339  0.09366343     0.08400
C855        C  0.91837655  0.74485537  0.00256065     0.09400
S856        S  0.96453143  0.65944085  0.01604499    -0.25200
H857        H  0.98527507  0.69603754  0.08311301     0.19700
S858        S  0.93013756  0.85328463  0.12194552    -0.30900
H859        H  0.91126652  0.81977078  0.05354836     0.10000
C860        C  0.89456899  0.72444872  0.00486088     0.03200
C861        C  0.88169349  0.71562577  0.97168300    -0.13200
C862        C  0.89219895  0.72667756  0.93644824    -0.08900
C863        C  0.91591658  0.74778532  0.93416213     0.06700
C864        C  0.92854911  0.75762171  0.96727855    -0.14000
S865        S  0.88114568  0.70683816  0.04991770    -0.30900
H866        H  0.86363553  0.69876592  0.97305497     0.10900
S867        S  0.93183822  0.75908926  0.89026591    -0.28000
H868        H  0.94693520  0.77292620  0.96562807     0.08100
H869        H  0.93835104  0.82947458  0.15671939     0.26600
H870        H  0.85953122  0.68560682  0.03585785     0.21400
H871        H  0.92280133  0.71442300  0.87249154     0.26700
H872        H  0.94069984  0.64798470  0.00376283     0.15500
loop_ 
_geom_bond_atom_site_label_1 
_geom_bond_atom_site_label_2 
_geom_bond_distance 
_geom_bond_site_symmetry_2 
_ccdc_geom_bond_type 
C1            C2   1.532   1_455  S
C1            C7   1.547       .  S
C1            C5   1.541   1_455  S
C1          C829   1.549       .  S
C2            H9   1.086       .  S
C2            C3   1.360       .  D
C3            C4   1.551       .  S
C3          C853   1.482       .  S
C4            C8   1.546   1_655  S
C4            C6   1.543       .  S
C4           H10   1.102       .  S
C5           H11   1.086       .  S
C5            C6   1.373       .  D
C6          C781   1.502       .  S
C7           H12   1.078       .  S
C7            C8   1.369       .  D
C8          C805   1.511       .  S
C13          C14   1.551       .  S
C13          C19   1.544       .  S
C13          C17   1.539       .  S
C13         C733   1.548       .  S
C14          H21   1.079       .  S
C14          C15   1.364       .  D
C15          C16   1.531       .  S
C15         C718   1.487       .  S
C16          C20   1.539       .  S
C16          C18   1.537       .  S
C16          H22   1.111       .  S
C17          H23   1.086       .  S
C17          C18   1.366       .  D
C18         C694   1.479       .  S
C19          H24   1.085       .  S
C19          C20   1.368       .  D
C20         C757   1.489       .  S
O25         Ni31   1.922       .  S
O25          C46   1.271       .  A
O26         Ni49   1.917       .  S
O26          C35   1.272       .  A
O27         Ni31   1.900       .  S
O27         Ni49   1.905       .  S
O27         Ni43   1.920       .  S
O27          H50   0.962       .  S
C28          O45   1.278       .  A
C28          O37   1.279       .  A
C28         C589   1.492       .  S
O29         Ni48   1.927       .  S
O29          C35   1.272       .  A
O30         Ni48   1.908       .  S
O30          C32   1.270       .  A
Ni31         O34   1.914       .  S
Ni31         O36   1.905       .  S
C32          O42   1.274       .  A
C32         C661   1.481       .  S
O33         Ni49   1.951       .  S
O33          C39   1.285       .  A
O34          C39   1.277       .  A
C35         C613   1.486       .  S
O36          C38   1.268       .  A
O37         Ni48   1.932       .  S
C38          O44   1.270       .  A
C38         C565   1.476       .  S
C39         C646   1.500       .  S
H40          O41   0.981       .  S
O41         Ni49   1.926       .  S
O41         Ni43   1.899       .  S
O41         Ni48   1.901       .  S
O42         Ni43   1.930       .  S
Ni43         O47   1.916       .  S
Ni43         O45   1.923       .  S
O44         Ni49   1.923       .  S
C46          O47   1.270       .  A
C46         C766   1.484       .  S
C51          C52   1.539       .  S
C51          C57   1.530       .  S
C51          C55   1.546       .  S
C51         C622   1.546       .  S
C52          H59   1.086       .  S
C52          C53   1.371       .  D
C53          C54   1.549       .  S
C53         C541   1.506       .  S
C54          C58   1.551       .  S
C54          C56   1.542       .  S
C54          H60   1.108       .  S
C55          H61   1.080       .  S
C55          C56   1.367       .  D
C56         C685   1.490       .  S
C57          H62   1.087       .  S
C57          C58   1.363       .  D
C58         C517   1.486       .  S
O63         Ni69   1.928       .  S
O63          C84   1.272       .  A
O64         Ni87   1.892       .  S
O64          C73   1.263       .  A
O65         Ni69   1.899       .  S
O65         Ni87   1.887       .  S
O65         Ni81   1.914       .  S
O65          H88   0.966       .  S
C66          O83   1.277       .  A
C66          O75   1.274       .  A
C66         C550   1.496       .  S
O67         Ni86   1.924       .  S
O67          C73   1.269       .  A
O68         Ni86   1.897       .  S
O68          C70   1.269       .  A
Ni69         O72   1.930       .  S
Ni69         O74   1.912       .  S
C70          O80   1.279       .  A
C70         C469   1.494       .  S
O71         Ni87   1.922       .  S
O71          C77   1.276       .  A
O72          C77   1.280       .  A
C73         C862   1.462       .  S
O74          C76   1.269       .  A
O75         Ni86   1.924       .  S
C76          O82   1.276       .  A
C76         C526   1.497       .  S
C77         C445   1.487       .  S
H78          O79   0.966       .  S
O79         Ni87   1.928       .  S
O79         Ni81   1.920       .  S
O79         Ni86   1.913       .  S
O80         Ni81   1.953       .  S
Ni81         O85   1.918       .  S
Ni81         O83   1.934       .  S
O82         Ni87   1.942       .  S
C84          O85   1.272       .  A
C84         C493   1.473       .  S
C89          C90   1.545       .  S
C89          C95   1.535       .  S
C89          C93   1.542       .  S
C89         C502   1.547       .  S
C90          H97   1.080       .  S
C90          C91   1.361       .  D
C91          C92   1.538       .  S
C91         C670   1.487       .  S
C92          C96   1.546       .  S
C92          C94   1.546       .  S
C92          H98   1.110       .  S
C93          H99   1.084       .  S
C93          C94   1.371       .  D
C94         C790   1.496       .  S
C95         H100   1.086       .  S
C95          C96   1.365       .  D
C96         C637   1.487       .  S
C101        C102   1.536       .  S
C101        C107   1.545       .  S
C101        C105   1.528       .  S
C101        C574   1.540       .  S
C102        H109   1.084       .  S
C102        C103   1.369       .  D
C103        C104   1.554       .  S
C103        C598   1.501       .  S
C104        C108   1.544       .  S
C104        C106   1.553       .  S
C104        H110   1.110       .  S
C105        H111   1.086       .  S
C105        C106   1.364       .  D
C106        C406   1.486       .  S
C107        H112   1.078       .  S
C107        C108   1.359       .  D
C108        C421   1.493       .  S
C113        C114   1.552   1_455  S
C113        C119   1.539       .  S
C113        C117   1.537       .  S
C113        C454   1.550   1_455  S
C114        H121   1.079       .  S
C114        C115   1.371   1_655  D
C115        C116   1.542       .  S
C115        C478   1.501   1_455  S
C116        C120   1.539       .  S
C116        C118   1.548       .  S
C116        H122   1.109       .  S
C117        H123   1.086       .  S
C117        C118   1.364       .  D
C118        C349   1.488       .  S
C119        H124   1.086       .  S
C119        C120   1.365       .  D
C120        C382   1.488       .  S
O125       Ni131   1.928       .  S
O125        C146   1.271       .  A
O126       Ni149   1.919       .  S
O126        C135   1.272       .  A
O127       Ni131   1.898       .  S
O127       Ni149   1.907       .  S
O127       Ni143   1.908       .  S
O127        H150   0.965       .  S
C128        O145   1.272       .  A
C128        O137   1.280       .  A
C128        C838   1.475       .  S
O129       Ni148   1.938       .  S
O129        C135   1.277       .  A
O130       Ni148   1.921       .  S
O130        C132   1.271       .  A
Ni131       O134   1.910       .  S
Ni131       O136   1.904       .  S
C132        O142   1.275       .  A
C132        C325   1.507       .  S
O133       Ni149   1.948       .  S
O133        C139   1.284       .  A
O134        C139   1.276       .  A
C135        C286   1.503       .  S
O136        C138   1.268       .  A
O137       Ni148   1.938       .  S
C138        O144   1.273       .  A
C138        C814   1.480       .  S
C139        C310   1.487       .  S
H140        O141   0.966       .  S
O141       Ni149   1.917       .  S
O141       Ni143   1.902       .  S
O141       Ni148   1.906       .  S
O142       Ni143   1.933       .  S
Ni143       O147   1.913       .  S
Ni143       O145   1.903       .  S
O144       Ni149   1.932       .  S
C146        O147   1.268       .  A
C146        C373   1.494       .  S
C151        C152   1.541       .  S
C151        C157   1.542       .  S
C151        C155   1.542       .  S
C151        C238   1.557       .  S
C152        H159   1.082       .  S
C152        C153   1.376       .  D
C153        C154   1.555       .  S
C153        C358   1.519       .  S
C154        C158   1.550       .  S
C154        C156   1.540       .  S
C154        H160   1.105       .  S
C155        H161   1.086       .  S
C155        C156   1.369       .  D
C156        C253   1.500       .  S
C157        H162   1.080       .  S
C157        C158   1.363       .  D
C158        C277   1.494       .  S
O163       Ni169   1.921       .  S
O163        C184   1.270       .  A
O164       Ni187   1.927       .  S
O164        C173   1.278       .  A
O165       Ni169   1.888       .  S
O165       Ni187   1.906       .  S
O165       Ni181   1.913       .  S
O165        H188   0.965       .  S
C166        O183   1.274       .  A
C166        O175   1.281       .  A
C166        C709   1.494       .  S
O167       Ni186   1.936       .  S
O167        C173   1.276       .  A
O168       Ni186   1.906       .  S
O168        C170   1.270       .  A
Ni169       O172   1.910       .  S
Ni169       O174   1.910       .  S
C170        O180   1.277       .  A
C170        C262   1.491       .  S
O171       Ni187   1.949       .  S
O171        C177   1.283       .  A
O172        C177   1.273       .  A
C173        C214   1.496       .  S
O174        C176   1.269       .  A
O175       Ni186   1.938       .  S
C176        O182   1.277       .  A
C176        C742   1.495       .  S
C177        C229   1.478       .  S
H178        O179   0.966       .  S
O179       Ni187   1.915       .  S
O179       Ni181   1.909       .  S
O179       Ni186   1.893       .  S
O180       Ni181   1.949       .  S
Ni181       O185   1.932       .  S
Ni181       O183   1.913       .  S
O182       Ni187   1.942       .  S
C184        O185   1.274       .  A
C184        C430   1.494       .  S
C189        C190   1.545       .  S
C189        C195   1.538       .  S
C189        C193   1.541       .  S
C189        C301   1.552       .  S
C190        H197   1.079       .  S
C190        C191   1.365       .  D
C191        C192   1.542       .  S
C191        C397   1.492       .  S
C192        C196   1.550       .  S
C192        C194   1.542       .  S
C192        H198   1.111       .  S
C193        H199   1.086       .  S
C193        C194   1.369       .  D
C194        C334   1.496       .  S
C195        H200   1.086       .  S
C195        C196   1.367       .  D
C196        C205   1.493       .  S
C201        C202   1.404       .  A
C201        C206   1.405       .  A
C201        H211   1.084       .  S
C202        C207   1.495       .  S
C202        C203   1.417       .  A
C203        C204   1.407       .  A
C203        S208   1.805       .  S
C204        C205   1.404   1_556  A
C204        H209   1.084   1_556  S
C205        C206   1.416   1_554  A
C206        S210   1.803   1_556  S
C207        C212   1.409       .  A
C207        C216   1.407       .  A
S208        H224   1.404       .  S
S210        H221   1.406       .  S
C212        C213   1.406       .  A
C212        S217   1.807       .  S
C213        C214   1.410       .  A
C213        H218   1.083       .  S
C214        C215   1.416       .  A
C215        C216   1.409       .  A
C215        S219   1.801       .  S
C216        H220   1.083       .  S
S217        H222   1.407       .  S
S219        H223   1.407       .  S
C225        C226   1.404       .  A
C225        C230   1.400       .  A
C225        H235   1.084       .  S
C226        C231   1.496       .  S
C226        C227   1.419       .  A
C227        C228   1.406       .  A
C227        S232   1.806       .  S
C228        C229   1.405       .  A
C228        H233   1.084       .  S
C229        C230   1.411       .  A
C230        S234   1.801       .  S
C231        C236   1.410       .  A
C231        C240   1.400       .  A
S232        H248   1.405       .  S
S234        H245   1.406       .  S
C236        C237   1.408       .  A
C236        S241   1.809       .  S
C237        C238   1.417       .  A
C237        H242   1.072       .  S
C238        C239   1.426       .  A
C239        C240   1.407       .  A
C239        S243   1.805       .  S
C240        H244   1.083       .  S
S241        H246   1.406       .  S
S243        H247   1.406       .  S
C249        C250   1.403       .  A
C249        C254   1.404       .  A
C249        H259   1.084       .  S
C250        C255   1.489       .  S
C250        C251   1.414       .  A
C251        C252   1.402       .  A
C251        S256   1.806       .  S
C252        C253   1.407       .  A
C252        H257   1.084       .  S
C253        C254   1.418       .  A
C254        S258   1.797       .  S
C255        C260   1.410       .  A
C255        C264   1.402       .  A
S256        H272   1.404       .  S
S258        H269   1.404       .  S
C260        C261   1.407   1_545  A
C260        S265   1.805       .  S
C261        C262   1.408       .  A
C261        H266   1.083       .  S
C262        C263   1.417   1_565  A
C263        C264   1.401       .  A
C263        S267   1.797       .  S
C264        H268   1.084       .  S
S265        H270   1.407   1_545  S
S267        H271   1.406   1_545  S
C273        C274   1.405       .  A
C273        C278   1.405       .  A
C273        H283   1.084       .  S
C274        C279   1.487       .  S
C274        C275   1.411       .  A
C275        C276   1.399       .  A
C275        S280   1.804       .  S
C276        C277   1.406       .  A
C276        H281   1.084       .  S
C277        C278   1.414       .  A
C278        S282   1.798       .  S
C279        C284   1.406       .  A
C279        C288   1.403       .  A
S280        H296   1.405       .  S
S282        H293   1.406       .  S
C284        C285   1.404       .  A
C284        S289   1.807       .  S
C285        C286   1.412       .  A
C285        H290   1.082       .  S
C286        C287   1.423       .  A
C287        C288   1.407       .  A
C287        S291   1.801       .  S
C288        H292   1.084       .  S
S289        H294   1.407       .  S
S291        H295   1.408       .  S
C297        C298   1.402       .  A
C297        C302   1.408       .  A
C297        H307   1.083       .  S
C298        C303   1.490       .  S
C298        C299   1.407       .  A
C299        C300   1.402       .  A
C299        S304   1.805       .  S
C300        C301   1.418       .  A
C300        H305   1.073       .  S
C301        C302   1.425       .  A
C302        S306   1.811       .  S
C303        C308   1.414       .  A
C303        C312   1.400       .  A
S304        H320   1.405       .  S
S306        H317   1.406       .  S
C308        C309   1.411       .  A
C308        S313   1.804       .  S
C309        C310   1.406       .  A
C309        H314   1.083       .  S
C310        C311   1.417       .  A
C311        C312   1.398       .  A
C311        S315   1.804       .  S
C312        H316   1.084       .  S
S313        H318   1.407       .  S
S315        H319   1.407       .  S
C321        C322   1.406       .  A
C321        C326   1.406       .  A
C321        H331   1.084   1_545  S
C322        C327   1.500   1_545  S
C322        C323   1.413       .  A
C323        C324   1.402       .  A
C323        S328   1.804       .  S
C324        C325   1.411       .  A
C324        H329   1.083       .  S
C325        C326   1.423       .  A
C326        S330   1.801       .  S
C327        C332   1.415       .  A
C327        C336   1.406       .  A
S328        H344   1.406       .  S
S330        H341   1.408       .  S
C332        C333   1.410       .  A
C332        S337   1.806   1_565  S
C333        C334   1.406       .  A
C333        H338   1.083       .  S
C334        C335   1.414       .  A
C335        C336   1.403       .  A
C335        S339   1.803       .  S
C336        H340   1.083       .  S
S337        H342   1.407   1_545  S
S339        H343   1.407       .  S
C345        C346   1.405       .  A
C345        C350   1.404       .  A
C345        H355   1.083       .  S
C346        C351   1.497       .  S
C346        C347   1.417       .  A
C347        C348   1.400       .  A
C347        S352   1.806       .  S
C348        C349   1.400       .  A
C348        H353   1.080       .  S
C349        C350   1.419       .  A
C350        S354   1.809       .  S
C351        C356   1.412       .  A
C351        C360   1.399       .  A
S352        H368   1.407       .  S
S354        H365   1.400       .  S
C356        C357   1.409       .  A
C356        S361   1.808       .  S
C357        C358   1.412       .  A
C357        H362   1.075       .  S
C358        C359   1.425       .  A
C359        C360   1.397       .  A
C359        S363   1.796       .  S
C360        H364   1.084       .  S
S361        H366   1.407       .  S
S363        H367   1.407       .  S
C369        C370   1.402   1_554  A
C369        C374   1.403       .  A
C369        H379   1.084   1_554  S
C370        C375   1.483       .  S
C370        C371   1.410   1_556  A
C371        C372   1.399       .  A
C371        S376   1.806   1_554  S
C372        C373   1.410       .  A
C372        H377   1.083       .  S
C373        C374   1.420       .  A
C374        S378   1.802       .  S
C375        C380   1.409       .  A
C375        C384   1.401       .  A
S376        H392   1.405       .  S
S378        H389   1.408       .  S
C380        C381   1.404       .  A
C380        S385   1.806       .  S
C381        C382   1.403       .  A
C381        H386   1.077       .  S
C382        C383   1.416       .  A
C383        C384   1.400       .  A
C383        S387   1.802   1_455  S
C384        H388   1.084       .  S
S385        H390   1.407       .  S
S387        H391   1.404       .  S
C393        C394   1.402       .  A
C393        C398   1.397       .  A
C393        H403   1.084       .  S
C394        C399   1.495       .  S
C394        C395   1.418       .  A
C395        C396   1.408       .  A
C395        S400   1.803       .  S
C396        C397   1.404       .  A
C396        H401   1.084       .  S
C397        C398   1.416       .  A
C398        S402   1.805       .  S
C399        C404   1.413       .  A
C399        C408   1.407       .  A
S400        H416   1.406       .  S
S402        H413   1.406       .  S
C404        C405   1.404       .  A
C404        S409   1.807       .  S
C405        C406   1.403       .  A
C405        H410   1.083       .  S
C406        C407   1.414       .  A
C407        C408   1.405       .  A
C407        S411   1.802       .  S
C408        H412   1.084       .  S
S409        H414   1.407       .  S
S411        H415   1.405       .  S
C417        C418   1.400       .  A
C417        C422   1.398       .  A
C417        H427   1.084       .  S
C418        C423   1.489       .  S
C418        C419   1.416       .  A
C419        C420   1.408       .  A
C419        S424   1.802       .  S
C420        C421   1.404       .  A
C420        H425   1.084       .  S
C421        C422   1.419       .  A
C422        S426   1.802       .  S
C423        C428   1.408       .  A
C423        C432   1.406       .  A
S424        H440   1.406       .  S
S426        H437   1.404       .  S
C428        C429   1.401       .  A
C428        S433   1.809       .  S
C429        C430   1.409       .  A
C429        H434   1.079       .  S
C430        C431   1.416       .  A
C431        C432   1.408       .  A
C431        S435   1.799       .  S
C432        H436   1.084       .  S
S433        H438   1.407       .  S
S435        H439   1.407       .  S
C441        C442   1.403       .  A
C441        C446   1.400       .  A
C441        H451   1.084       .  S
C442        C447   1.488       .  S
C442        C443   1.413       .  A
C443        C444   1.403       .  A
C443        S448   1.803       .  S
C444        C445   1.406       .  A
C444        H449   1.084       .  S
C445        C446   1.418       .  A
C446        S450   1.805       .  S
C447        C452   1.405   1_565  A
C447        C456   1.400       .  A
S448        H464   1.405       .  S
S450        H461   1.405       .  S
C452        C453   1.402       .  A
C452        S457   1.810       .  S
C453        C454   1.414       .  A
C453        H458   1.071       .  S
C454        C455   1.428   1_655  A
C455        C456   1.410   1_445  A
C455        S459   1.811       .  S
C456        H460   1.082       .  S
S457        H462   1.406       .  S
S459        H463   1.406   1_545  S
C465        C466   1.403       .  A
C465        C470   1.402       .  A
C465        H475   1.084       .  S
C466        C471   1.481       .  S
C466        C467   1.410       .  A
C467        C468   1.401       .  A
C467        S472   1.807       .  S
C468        C469   1.412       .  A
C468        H473   1.084       .  S
C469        C470   1.417       .  A
C470        S474   1.799       .  S
C471        C476   1.406       .  A
C471        C480   1.400       .  A
S472        H488   1.403       .  S
S474        H485   1.407       .  S
C476        C477   1.402       .  A
C476        S481   1.808       .  S
C477        C478   1.410       .  A
C477        H482   1.082       .  S
C478        C479   1.419       .  A
C479        C480   1.403       .  A
C479        S483   1.796   1_655  S
C480        H484   1.084       .  S
S481        H486   1.407       .  S
S483        H487   1.394       .  S
C489        C490   1.404       .  A
C489        C494   1.400       .  A
C489        H499   1.084       .  S
C490        C495   1.488       .  S
C490        C491   1.415       .  A
C491        C492   1.402       .  A
C491        S496   1.804       .  S
C492        C493   1.401       .  A
C492        H497   1.084       .  S
C493        C494   1.411       .  A
C494        S498   1.804       .  S
C495        C500   1.405       .  A
C495        C504   1.401       .  A
S496        H512   1.406       .  S
S498        H509   1.407       .  S
C500        C501   1.402       .  A
C500        S505   1.808       .  S
C501        C502   1.416       .  A
C501        H506   1.073       .  S
C502        C503   1.423       .  A
C503        C504   1.406       .  A
C503        S507   1.808       .  S
C504        H508   1.083       .  S
S505        H510   1.407       .  S
S507        H511   1.407       .  S
C513        C514   1.406       .  A
C513        C518   1.406       .  A
C513        H523   1.084   1_545  S
C514        C519   1.493   1_545  S
C514        C515   1.413       .  A
C515        C516   1.401       .  A
C515        S520   1.801       .  S
C516        C517   1.403       .  A
C516        H521   1.084       .  S
C517        C518   1.413       .  A
C518        S522   1.801       .  S
C519        C524   1.412       .  A
C519        C528   1.400       .  A
S520        H536   1.407   1_545  S
S522        H533   1.406       .  S
C524        C525   1.411       .  A
C524        S529   1.805       .  S
C525        C526   1.408       .  A
C525        H530   1.082       .  S
C526        C527   1.422       .  A
C527        C528   1.402       .  A
C527        S531   1.804       .  S
C528        H532   1.084   1_565  S
S529        H534   1.407       .  S
S531        H535   1.406       .  S
C537        C538   1.406       .  A
C537        C542   1.412       .  A
C537        H547   1.082       .  S
C538        C543   1.495       .  S
C538        C539   1.411       .  A
C539        C540   1.398       .  A
C539        S544   1.803       .  S
C540        C541   1.410       .  A
C540        H545   1.083       .  S
C541        C542   1.418       .  A
C542        S546   1.805       .  S
C543        C548   1.410       .  A
C543        C552   1.408       .  A
S544        H560   1.406       .  S
S546        H557   1.406       .  S
C548        C549   1.403       .  A
C548        S553   1.808       .  S
C549        C550   1.409       .  A
C549        H554   1.083       .  S
C550        C551   1.416       .  A
C551        C552   1.409       .  A
C551        S555   1.800       .  S
C552        H556   1.084       .  S
S553        H558   1.407       .  S
S555        H559   1.407       .  S
C561        C562   1.401       .  A
C561        C566   1.400       .  A
C561        H571   1.084       .  S
C562        C567   1.472   1_545  S
C562        C563   1.411       .  A
C563        C564   1.394       .  A
C563        S568   1.807   1_545  S
C564        C565   1.404       .  A
C564        H569   1.084       .  S
C565        C566   1.415       .  A
C566        S570   1.801       .  S
C567        C572   1.401       .  A
C567        C576   1.399       .  A
S568        H584   1.404       .  S
S570        H581   1.407       .  S
C572        C573   1.393       .  A
C572        S577   1.810   1_565  S
C573        C574   1.413       .  A
C573        H578   1.072       .  S
C574        C575   1.425       .  A
C575        C576   1.407       .  A
C575        S579   1.810       .  S
C576        H580   1.083       .  S
S577        H582   1.407       .  S
S579        H583   1.407       .  S
C585        C586   1.403       .  A
C585        C590   1.404       .  A
C585        H595   1.084       .  S
C586        C591   1.487       .  S
C586        C587   1.412       .  A
C587        C588   1.401       .  A
C587        S592   1.806       .  S
C588        C589   1.409       .  A
C588        H593   1.084       .  S
C589        C590   1.417       .  A
C590        S594   1.802       .  S
C591        C596   1.409       .  A
C591        C600   1.399       .  A
S592        H608   1.405       .  S
S594        H605   1.407       .  S
C596        C597   1.407       .  A
C596        S601   1.804       .  S
C597        C598   1.406       .  A
C597        H602   1.079       .  S
C598        C599   1.422       .  A
C599        C600   1.404       .  A
C599        S603   1.809       .  S
C600        H604   1.083       .  S
S601        H606   1.407       .  S
S603        H607   1.407       .  S
C609        C610   1.401       .  A
C609        C614   1.397       .  A
C609        H619   1.084       .  S
C610        C615   1.487       .  S
C610        C611   1.414       .  A
C611        C612   1.405       .  A
C611        S616   1.803       .  S
C612        C613   1.406       .  A
C612        H617   1.083       .  S
C613        C614   1.417       .  A
C614        S618   1.804       .  S
C615        C620   1.407       .  A
C615        C624   1.399       .  A
S616        H632   1.406       .  S
S618        H629   1.407       .  S
C620        C621   1.403   1_554  A
C620        S625   1.809       .  S
C621        C622   1.414       .  A
C621        H626   1.073       .  S
C622        C623   1.427       .  A
C623        C624   1.406   1_556  A
C623        S627   1.812       .  S
C624        H628   1.082       .  S
S625        H630   1.406   1_554  S
S627        H631   1.406   1_556  S
C633        C634   1.404       .  A
C633        C638   1.403       .  A
C633        H643   1.084       .  S
C634        C639   1.497       .  S
C634        C635   1.417       .  A
C635        C636   1.405       .  A
C635        S640   1.804       .  S
C636        C637   1.403       .  A
C636        H641   1.084       .  S
C637        C638   1.417       .  A
C638        S642   1.807       .  S
C639        C644   1.413   1_565  A
C639        C648   1.405   1_565  A
S640        H656   1.406       .  S
S642        H653   1.394       .  S
C644        C645   1.405       .  A
C644        S649   1.809       .  S
C645        C646   1.411       .  A
C645        H650   1.083       .  S
C646        C647   1.418       .  A
C647        C648   1.406       .  A
C647        S651   1.798       .  S
C648        H652   1.084   1_545  S
S649        H654   1.407       .  S
S651        H655   1.407       .  S
C657        C658   1.400       .  A
C657        C662   1.397       .  A
C657        H667   1.084       .  S
C658        C663   1.481       .  S
C658        C659   1.413       .  A
C659        C660   1.402       .  A
C659        S664   1.803       .  S
C660        C661   1.405       .  A
C660        H665   1.084       .  S
C661        C662   1.416       .  A
C662        S666   1.801       .  S
C663        C668   1.413       .  A
C663        C672   1.397       .  A
S664        H680   1.406       .  S
S666        H677   1.404       .  S
C668        C669   1.408       .  A
C668        S673   1.805       .  S
C669        C670   1.402       .  A
C669        H674   1.083       .  S
C670        C671   1.417       .  A
C671        C672   1.394       .  A
C671        S675   1.797       .  S
C672        H676   1.084       .  S
S673        H678   1.407       .  S
S675        H679   1.398       .  S
C681        C682   1.400       .  A
C681        C686   1.395       .  A
C681        H691   1.084       .  S
C682        C687   1.485       .  S
C682        C683   1.415       .  A
C683        C684   1.406       .  A
C683        S688   1.803       .  S
C684        C685   1.405       .  A
C684        H689   1.082       .  S
C685        C686   1.416       .  A
C686        S690   1.802       .  S
C687        C692   1.412       .  A
C687        C696   1.402       .  A
S688        H704   1.406       .  S
S690        H701   1.402       .  S
C692        C693   1.405       .  A
C692        S697   1.805       .  S
C693        C694   1.402       .  A
C693        H698   1.081       .  S
C694        C695   1.415       .  A
C695        C696   1.398       .  A
C695        S699   1.806       .  S
C696        H700   1.084       .  S
S697        H702   1.407       .  S
S699        H703   1.396       .  S
C705        C706   1.403       .  A
C705        C710   1.404   1_545  A
C705        H715   1.084       .  S
C706        C711   1.484       .  S
C706        C707   1.410       .  A
C707        C708   1.397       .  A
C707        S712   1.806       .  S
C708        C709   1.409   1_545  A
C708        H713   1.083       .  S
C709        C710   1.421       .  A
C710        S714   1.803       .  S
C711        C716   1.412       .  A
C711        C720   1.400       .  A
S712        H728   1.406       .  S
S714        H725   1.402       .  S
C716        C717   1.406       .  A
C716        S721   1.806       .  S
C717        C718   1.403       .  A
C717        H722   1.080       .  S
C718        C719   1.415       .  A
C719        C720   1.397       .  A
C719        S723   1.802       .  S
C720        H724   1.084       .  S
S721        H726   1.407       .  S
S723        H727   1.404       .  S
C729        C730   1.400       .  A
C729        C734   1.409       .  A
C729        H739   1.083       .  S
C730        C735   1.484       .  S
C730        C731   1.407       .  A
C731        C732   1.397       .  A
C731        S736   1.806       .  S
C732        C733   1.414       .  A
C732        H737   1.073       .  S
C733        C734   1.426       .  A
C734        S738   1.809       .  S
C735        C740   1.409       .  A
C735        C744   1.396       .  A
S736        H752   1.402       .  S
S738        H749   1.406       .  S
C740        C741   1.410       .  A
C740        S745   1.804       .  S
C741        C742   1.410       .  A
C741        H746   1.082       .  S
C742        C743   1.423       .  A
C743        C744   1.399       .  A
C743        S747   1.809       .  S
C744        H748   1.083       .  S
S745        H750   1.407       .  S
S747        H751   1.406       .  S
C753        C754   1.401       .  A
C753        C758   1.405       .  A
C753        H763   1.083       .  S
C754        C759   1.477       .  S
C754        C755   1.409       .  A
C755        C756   1.395       .  A
C755        S760   1.805       .  S
C756        C757   1.405       .  A
C756        H761   1.083       .  S
C757        C758   1.417       .  A
C758        S762   1.807       .  S
C759        C764   1.406       .  A
C759        C768   1.402       .  A
S760        H776   1.404       .  S
S762        H773   1.406       .  S
C764        C765   1.398       .  A
C764        S769   1.808       .  S
C765        C766   1.408       .  A
C765        H770   1.083       .  S
C766        C767   1.416       .  A
C767        C768   1.402       .  A
C767        S771   1.800       .  S
C768        H772   1.084       .  S
S769        H774   1.407       .  S
S771        H775   1.407       .  S
C777        C778   1.397       .  A
C777        C782   1.402       .  A
C777        H787   1.083       .  S
C778        C783   1.482       .  S
C778        C779   1.410       .  A
C779        C780   1.400       .  A
C779        S784   1.805       .  S
C780        C781   1.410       .  A
C780        H785   1.083       .  S
C781        C782   1.423       .  A
C782        S786   1.805       .  S
C783        C788   1.409       .  A
C783        C792   1.398       .  A
S784        H800   1.406       .  S
S786        H797   1.406       .  S
C788        C789   1.403       .  A
C788        S793   1.807       .  S
C789        C790   1.407       .  A
C789        H794   1.082       .  S
C790        C791   1.420       .  A
C791        C792   1.402       .  A
C791        S795   1.807       .  S
C792        H796   1.083       .  S
S793        H798   1.407       .  S
S795        H799   1.407       .  S
C801        C802   1.401       .  A
C801        C806   1.410       .  A
C801        H811   1.083       .  S
C802        C807   1.484       .  S
C802        C803   1.406       .  A
C803        C804   1.399       .  A
C803        S808   1.803       .  S
C804        C805   1.412       .  A
C804        H809   1.083       .  S
C805        C806   1.421       .  A
C806        S810   1.800   1_455  S
C807        C812   1.410       .  A
C807        C816   1.400       .  A
S808        H824   1.405       .  S
S810        H821   1.406       .  S
C812        C813   1.409       .  A
C812        S817   1.804       .  S
C813        C814   1.406       .  A
C813        H818   1.083       .  S
C814        C815   1.416       .  A
C815        C816   1.396       .  A
C815        S819   1.806       .  S
C816        H820   1.084       .  S
S817        H822   1.407       .  S
S819        H823   1.406       .  S
C825        C826   1.397       .  A
C825        C830   1.406       .  A
C825        H835   1.083       .  S
C826        C831   1.480   1_565  S
C826        C827   1.405       .  A
C827        C828   1.397       .  A
C827        S832   1.806       .  S
C828        C829   1.416       .  A
C828        H833   1.073       .  S
C829        C830   1.428       .  A
C830        S834   1.807   1_455  S
C831        C836   1.409       .  A
C831        C840   1.402       .  A
S832        H848   1.406       .  S
S834        H845   1.406       .  S
C836        C837   1.402       .  A
C836        S841   1.807   1_545  S
C837        C838   1.404       .  A
C837        H842   1.083       .  S
C838        C839   1.410       .  A
C839        C840   1.403       .  A
C839        S843   1.806       .  S
C840        H844   1.083       .  S
S841        H846   1.407   1_565  S
S843        H847   1.407       .  S
C849        C850   1.398       .  A
C849        C854   1.397       .  A
C849        H859   1.084       .  S
C850        C855   1.475       .  S
C850        C851   1.411       .  A
C851        C852   1.398       .  A
C851        S856   1.804       .  S
C852        C853   1.400       .  A
C852        H857   1.079       .  S
C853        C854   1.419       .  A
C854        S858   1.802       .  S
C855        C860   1.410       .  A
C855        C864   1.402   1_554  A
S856        H872   1.406       .  S
S858        H869   1.399       .  S
C860        C861   1.399   1_554  A
C860        S865   1.806       .  S
C861        C862   1.400       .  A
C861        H866   1.083       .  S
C862        C863   1.412       .  A
C863        C864   1.397       .  A
C863        S867   1.804       .  S
C864        H868   1.084       .  S
S865        H870   1.407       .  S
S867        H871   1.406       .  S
