geometry optimzed in LAMMPS
_audit_creation_date              2020-11-30 
_audit_creation_method            'lammps2cif' 
_symmetry_space_group_name_H-M    'P1' 
_symmetry_Int_Tables_number       1 
_symmetry_cell_setting            triclinic 
loop_ 
_symmetry_equiv_pos_as_xyz 
  x,y,z 
_cell_length_a                    34.5905767 
_cell_length_b                    34.55266244078435 
_cell_length_c                    34.30532196606856 
_cell_angle_alpha                 91.22016719722018 
_cell_angle_beta                  87.73064723480817 
_cell_angle_gamma                 92.80655554953036 
loop_ 
_atom_site_label 
_atom_site_type_symbol 
_atom_site_fract_x 
_atom_site_fract_y 
_atom_site_fract_z 
_atom_site_charge 
N1          N  0.00968832  0.46406948  0.05298633    -0.36200
N2          N  0.99956440  0.45996079  0.96745797    -0.56800
N3          N  0.00170833  0.54375063  0.96617957    -0.36200
N4          N  0.01208828  0.54787228  0.05158712    -0.56800
C5          C  0.00299812  0.42536543  0.04806068     0.27400
C6          C  0.01060576  0.47173128  0.09197635     0.27400
C7          C  0.00412664  0.53609209  0.92715111     0.27400
C8          C  0.00788804  0.58246458  0.97145138     0.27400
C9          C  0.99581470  0.42167992  0.97492839     0.36000
C10         C  0.99527953  0.46377030  0.92864924     0.36000
C11         C  0.01712665  0.54426930  0.09028826     0.36000
C12         C  0.01197476  0.58621254  0.04466834     0.36000
C13         C  0.00094817  0.40811772  0.08432491    -0.21500
C14         C  0.00529169  0.43722717  0.11185925    -0.21500
C15         C  0.01142973  0.57054901  0.90756761    -0.21500
C16         C  0.01335698  0.59972105  0.93537055    -0.21500
C17         C  0.98897069  0.40100369  0.94054396    -0.22500
C18         C  0.98859050  0.42760141  0.91133995    -0.22500
C19         C  0.02106738  0.58065785  0.10786682    -0.22500
C20         C  0.01731251  0.60713543  0.07916984    -0.22500
C21         C  0.99829792  0.40467756  0.01209851    -0.17900
C22         C  0.01583669  0.50877592  0.11058807    -0.17900
C23         C  0.00857312  0.60312305  0.00769051    -0.17900
C24         C  0.99880535  0.49922879  0.90826850    -0.17900
H25         H  0.99609344  0.37766389  0.09056715     0.15000
H26         H  0.00430672  0.43325816  0.14309203     0.15000
H27         H  0.01484402  0.57441171  0.87637427     0.15000
H28         H  0.01878597  0.63021143  0.92958093     0.15000
H29         H  0.98461595  0.36992837  0.93683495     0.13300
H30         H  0.98414257  0.42100317  0.88081495     0.13300
H31         H  0.02541128  0.58749561  0.13835867     0.13300
H32         H  0.01886978  0.63831517  0.08323593     0.13300
H33         H  0.01560265  0.48349669  0.03080316     0.26600
H34         H  0.99283176  0.52458403  0.98791693     0.26600
N35         N  0.99871239  0.45717358  0.55140437    -0.36200
N36         N  0.00429955  0.45577887  0.46552371    -0.56800
N37         N  0.99240917  0.53827684  0.46680734    -0.36200
N38         N  0.98657660  0.53928272  0.55279649    -0.56800
C39         C  0.01118325  0.42110108  0.54403463     0.27400
C40         C  0.00527804  0.46593795  0.58945154     0.27400
C41         C  0.99355605  0.53177656  0.42759585     0.27400
C42         C  0.98374022  0.57573214  0.47343866     0.27400
C43         C  0.00755626  0.41754149  0.47139345     0.36000
C44         C  0.00737528  0.46102527  0.42650290     0.36000
C45         C  0.98238753  0.53329256  0.59164235     0.36000
C46         C  0.97795357  0.57637896  0.54687838     0.36000
C47         C  0.02559964  0.40668607  0.57763426    -0.21500
C48         C  0.02256820  0.43516262  0.60601863    -0.21500
C49         C  0.98517282  0.56563638  0.40925442    -0.21500
C50         C  0.97943649  0.59332105  0.43800586    -0.21500
C51         C  0.01282058  0.39824752  0.43591037    -0.22500
C52         C  0.01368565  0.42584851  0.40761849    -0.22500
C53         C  0.96986790  0.56660913  0.61042381    -0.22500
C54         C  0.96777924  0.59406079  0.58221170    -0.22500
C55         C  0.00885580  0.40004175  0.50825229    -0.17900
C56         C  0.99351703  0.49957421  0.61056298    -0.17900
C57         C  0.97997532  0.59505151  0.51033966    -0.17900
C58         C  0.00292422  0.49666590  0.40747430    -0.17900
H59         H  0.03744998  0.37863178  0.58125970     0.15000
H60         H  0.03128103  0.43300444  0.63581651     0.15000
H61         H  0.98358299  0.57015431  0.37825199     0.15000
H62         H  0.97249223  0.62302118  0.43327460     0.15000
H63         H  0.01701487  0.36767423  0.43095050     0.13300
H64         H  0.01783735  0.42034629  0.37661353     0.13300
H65         H  0.96417079  0.57117112  0.64138011     0.13300
H66         H  0.95957431  0.62364301  0.58716048     0.13300
H67         H  0.98236688  0.47250872  0.53281010     0.26600
H68         H  0.00015093  0.51940606  0.48777505     0.26600
O69         O  0.98731834  0.02643493  0.91408244    -0.78100
C70         C  0.89637473  0.00140232  0.00095839     0.83000
O71         O  0.03007433  0.09814682  0.02341557    -0.79200
O72         O  0.98058443  0.98863954  0.09219934    -0.80700
O73         O  0.02610652  0.91192947  0.98182934    -0.80500
O74         O  0.02775316  0.97759780  0.91200399    -0.79100
Zn75       Zn  0.97392789  0.03635961  0.97019881     1.55700
O76         O  0.97945370  0.91341928  0.02845455    -0.80500
Cd77       Cd  0.03861856  0.96952306  0.96934154     1.59700
Cd78       Cd  0.04158318  0.04067001  0.02983894     1.59600
O79         O  0.09741368  0.98060269  0.97730496    -0.80500
O80         O  0.00542726  0.00481370  0.00094512    -1.91000
Cd81       Cd  0.96987114  0.97230617  0.03565151     1.59900
O82         O  0.09962524  0.03324477  0.01554886    -0.80500
O83         O  0.91184606  0.98004338  0.02525486    -0.79100
C84         C  0.00381242  0.11359304  0.00498334     0.83400
C85         C  0.00743061  0.00173632  0.89547606     0.83100
O86         O  0.91690131  0.02341594  0.97828219    -0.78100
C87         C  0.00234219  0.89475871  0.00576704     0.83900
O88         O  0.98085053  0.09325791  0.98385098    -0.78200
C89         C  0.11662626  0.00720668  0.99549701     0.84000
C90         C  0.00683649  0.01064577  0.10729060     0.84400
O91         O  0.03236422  0.03029809  0.08751674    -0.80600
O92         O  0.98986848  0.02633597  0.41500185    -0.78100
C93         C  0.89571580  0.99853477  0.49640687     0.83000
O94         O  0.03155345  0.08981921  0.52876451    -0.79200
O95         O  0.97503267  0.97467550  0.58816291    -0.80700
O96         O  0.02481332  0.90489321  0.47636317    -0.80500
O97         O  0.02804866  0.97578400  0.40944669    -0.79100
Zn98       Zn  0.97508666  0.03289784  0.47071851     1.55700
O99         O  0.97499484  0.90641503  0.51938782    -0.80500
Cd100      Cd  0.03768713  0.96361084  0.46625927     1.59700
Cd101      Cd  0.03997312  0.03065191  0.53334953     1.59600
O102        O  0.09657676  0.97477329  0.47409908    -0.80500
O103        O  0.00479784  0.99820140  0.49975559    -1.91000
Cd104      Cd  0.96679843  0.96443399  0.53015334     1.59900
O105        O  0.09804869  0.02073513  0.52075979    -0.80500
O106        O  0.90984138  0.97423068  0.51859270    -0.79100
C107        C  0.00812240  0.10731189  0.50828756     0.83400
C108        C  0.00962030  0.00260235  0.39479570     0.83100
O109        O  0.91742043  0.02223107  0.47665006    -0.78100
C110        C  0.99907160  0.88766738  0.49832521     0.83900
O111        O  0.98521855  0.08873667  0.48573771    -0.78200
C112        C  0.11519317  0.99801366  0.49673417     0.84000
C113        C  0.00067813  0.99451730  0.60649073     0.84400
O114        O  0.02728995  0.01571707  0.58985605    -0.80600
N115        N  0.54483311  0.98679061  0.03638871    -0.36200
N116        N  0.46119673  0.97991365  0.03640397    -0.56800
N117        N  0.46588025  0.98613196  0.95057269    -0.36200
N118        N  0.54904449  0.98953721  0.95023135    -0.56800
C119        C  0.53727260  0.98036500  0.07491585     0.27400
C120        C  0.58347558  0.98451495  0.02943846     0.27400
C121        C  0.42796924  0.97610049  0.95717880     0.27400
C122        C  0.47432162  0.97937699  0.91213861     0.27400
C123        C  0.46503935  0.98314758  0.07553589     0.36000
C124        C  0.42338983  0.98438537  0.02975872     0.36000
C125        C  0.58659189  0.99819938  0.95764997     0.36000
C126        C  0.54435188  0.99820417  0.91241679     0.36000
C127        C  0.57185014  0.97456006  0.09264467    -0.21500
C128        C  0.60077443  0.97683032  0.06405442    -0.21500
C129        C  0.41202408  0.96277954  0.92265548    -0.21500
C130        C  0.44137672  0.96435437  0.89434024    -0.21500
C131        C  0.42909034  0.98799647  0.09385133    -0.22500
C132        C  0.40287622  0.98934983  0.06489905    -0.22500
C133        C  0.60598487  0.01192751  0.92415537    -0.22500
C134        C  0.57911559  0.01255729  0.89575369    -0.22500
C135        C  0.50052410  0.98203155  0.09503352    -0.17900
C136        C  0.60416640  0.99225413  0.99358680    -0.17900
C137        C  0.50982424  0.99019098  0.89212649    -0.17900
C138        C  0.40661249  0.98202748  0.99266635    -0.17900
H139        H  0.57623789  0.96986150  0.12317570     0.15000
H140        H  0.63131004  0.97426031  0.06863019     0.15000
H141        H  0.38217524  0.95339896  0.91824076     0.15000
H142        H  0.43844583  0.95661448  0.86382638     0.15000
H143        H  0.42242563  0.99087296  0.12482802     0.13300
H144        H  0.37211631  0.99308749  0.06930193     0.13300
H145        H  0.63635092  0.02067193  0.92046887     0.13300
H146        H  0.58478524  0.02160353  0.86598168     0.13300
H147        H  0.52561089  0.99633692  0.01675551     0.26600
H148        H  0.48310723  0.00196625  0.96994391     0.26600
N149        N  0.54744734  0.99988073  0.53467013    -0.36200
N150        N  0.54747747  0.00141192  0.44859414    -0.56800
N151        N  0.46466706  0.00792593  0.45294666    -0.36200
N152        N  0.46460991  0.01048237  0.53892707    -0.56800
C153        C  0.58604433  0.00204466  0.52621030     0.27400
C154        C  0.54218386  0.00415021  0.57388167     0.27400
C155        C  0.47208752  0.01404415  0.41436927     0.27400
C156        C  0.42840083  0.01919818  0.46177428     0.27400
C157        C  0.58470331  0.99297573  0.45340737     0.36000
C158        C  0.54036379  0.99445830  0.41048848     0.36000
C159        C  0.46967449  0.00535660  0.57742972     0.36000
C160        C  0.42592369  0.00943822  0.53402731     0.36000
C161        C  0.60564538  0.00693294  0.56061154    -0.21500
C162        C  0.57811942  0.00775349  0.59058487    -0.21500
C163        C  0.44011551  0.02958831  0.39859080    -0.21500
C164        C  0.41249298  0.03258873  0.42840267    -0.21500
C165        C  0.60149817  0.98104313  0.41808704    -0.22500
C166        C  0.57325873  0.98133694  0.39107254    -0.22500
C167        C  0.43392848  0.00244484  0.59720552    -0.22500
C168        C  0.40630233  0.00454935  0.56973044    -0.22500
C169        C  0.60443839  0.99749064  0.48873155    -0.17900
C170        C  0.50602013  0.00389067  0.59525285    -0.17900
C171        C  0.40788334  0.01433564  0.49811960    -0.17900
C172        C  0.50565637  0.00299942  0.39244979    -0.17900
H173        H  0.63666754  0.00890619  0.56396091     0.15000
H174        H  0.58414477  0.01068556  0.62123151     0.15000
H175        H  0.43666790  0.03706296  0.36848987     0.15000
H176        H  0.38367609  0.04286052  0.42568566     0.15000
H177        H  0.63099433  0.97278228  0.41237521     0.13300
H178        H  0.57688836  0.97369686  0.36043773     0.15100
H179        H  0.42820940  0.99883973  0.62818398     0.13300
H180        H  0.37528310  0.00307118  0.57550289     0.13300
H181        H  0.52606164  0.99266558  0.51497389     0.26600
H182        H  0.48102354  0.99183183  0.47097840     0.26600
C183        C  0.50641802  0.00241716  0.63904350     0.01700
C184        C  0.51860763  0.03539691  0.66120257     0.04600
C185        C  0.52167535  0.03310740  0.70199509    -0.11500
C186        C  0.50856848  0.99912501  0.72170252     0.23900
C187        C  0.49433395  0.96681286  0.69967453    -0.12100
C188        C  0.49521108  0.96781272  0.65852352     0.05300
C189        C  0.50959440  0.99740376  0.76536431     0.27700
C190        C  0.53513507  0.97307951  0.78313852    -0.12700
C191        C  0.53387108  0.96915270  0.82409094     0.05800
C192        C  0.51051725  0.99312922  0.84821534    -0.08700
C193        C  0.48703679  0.01955595  0.83031169     0.06600
C194        C  0.48484242  0.01990404  0.78931006    -0.13100
Br195      Br  0.47247793  0.92145150  0.72586640    -0.05200
Br196      Br  0.53086003  0.08390783  0.63560070     0.00500
Br197      Br  0.56276035  0.92933103  0.84658136     0.00900
Br198      Br  0.44678364  0.05028419  0.76599780    -0.03500
Br199      Br  0.48186512  0.92143356  0.62869092     0.01000
Br200      Br  0.54521015  0.07615999  0.73065463    -0.02800
Br201      Br  0.57267126  0.94578489  0.75135009    -0.03600
Br202      Br  0.45869835  0.05650120  0.86171173     0.00300
C203        C  0.50449731  0.00064978  0.34855582     0.01700
C204        C  0.52855001  0.02574767  0.32504455     0.04600
C205        C  0.52995197  0.02093778  0.28400702    -0.11500
C206        C  0.50372477  0.99439270  0.26558544     0.23900
C207        C  0.47782664  0.97112371  0.28912297    -0.12100
C208        C  0.47979531  0.97266947  0.33016898     0.05300
C209        C  0.50289853  0.99120380  0.22178446     0.27700
C210        C  0.49132215  0.02248220  0.19974812    -0.12700
C211        C  0.49222768  0.01997873  0.15857599     0.05800
C212        C  0.49965898  0.98454997  0.13900735    -0.08700
C213        C  0.50806502  0.95229427  0.16129518     0.06600
C214        C  0.51268136  0.95651091  0.20192694    -0.13100
Br215      Br  0.43859054  0.93781805  0.26530666    -0.05200
Br216      Br  0.55862504  0.06776141  0.34891012     0.00500
Br217      Br  0.48421841  0.06556622  0.12892604     0.00900
Br218      Br  0.53441524  0.91538401  0.22992025    -0.03500
Br219      Br  0.44957625  0.93523813  0.36107651     0.01000
Br220      Br  0.56903194  0.04971801  0.25328288    -0.02800
Br221      Br  0.47290076  0.06848577  0.22581102    -0.03600
Br222      Br  0.51256189  0.90211182  0.13625740     0.00300
C223        C  0.15805326  0.99867280  0.49531145     0.01700
C224        C  0.17944161  0.01405695  0.46287881     0.04600
C225        C  0.22028191  0.01620770  0.46249862    -0.11500
C226        C  0.23987629  0.00374715  0.49490614     0.23900
C227        C  0.21847985  0.98801872  0.52712378    -0.12100
C228        C  0.17774775  0.98482170  0.52697585     0.05300
C229        C  0.28295480  0.00691480  0.49520389     0.27700
C230        C  0.30467969  0.97483371  0.48383552    -0.12700
C231        C  0.34534422  0.97738449  0.48518649     0.05800
C232        C  0.36462671  0.01207615  0.49779726    -0.08700
C233        C  0.34288915  0.04414025  0.50939529     0.06600
C234        C  0.30214126  0.04156913  0.50801672    -0.13100
Br235      Br  0.24515541  0.97139171  0.57171302    -0.05200
Br236      Br  0.15273554  0.03328621  0.41954529     0.00500
Br237      Br  0.37482674  0.93299068  0.47049648     0.00900
Br238      Br  0.27232138  0.08532751  0.52389919    -0.03500
Br239      Br  0.14892105  0.95977394  0.56933307     0.01000
Br240      Br  0.24956885  0.03637643  0.41777160    -0.02800
Br241      Br  0.27852948  0.92728627  0.46662800    -0.03600
Br242      Br  0.36899024  0.09141707  0.52723069     0.00300
C243        C  0.85310875  0.99949038  0.49368227     0.01700
C244        C  0.83610449  0.99908788  0.45682582     0.04600
C245        C  0.79558678  0.99971154  0.45443456    -0.11500
C246        C  0.77187752  0.00075145  0.48869810     0.23900
C247        C  0.78871546  0.00190950  0.52543096    -0.12100
C248        C  0.82917746  0.00119053  0.52798730     0.05300
C249        C  0.72909969  0.99981989  0.48630021     0.27700
C250        C  0.70978640  0.03461119  0.48402337    -0.12700
C251        C  0.66907712  0.03370587  0.48393385     0.05800
C252        C  0.64757266  0.99803264  0.48644828    -0.08700
C253        C  0.66694618  0.96321105  0.48806456     0.06600
C254        C  0.70766850  0.96407822  0.48750391    -0.13100
Br255      Br  0.75604627  0.00487274  0.57225534    -0.05200
Br256      Br  0.86780481  0.99572602  0.40936694     0.00500
Br257      Br  0.64254463  0.08133242  0.48116034     0.00900
Br258      Br  0.73433909  0.91639020  0.48830192    -0.03500
Br259      Br  0.85158249  0.00437842  0.57868646     0.01000
Br260      Br  0.77217010  0.99882575  0.40426771    -0.02800
Br261      Br  0.73928207  0.08339492  0.48131985    -0.03600
Br262      Br  0.63750287  0.91450511  0.49173573     0.00300
C263        C  0.15978283  0.00748633  0.99349170     0.01700
C264        C  0.18124153  0.01465419  0.02750561     0.04600
C265        C  0.22187246  0.01255728  0.02577158    -0.11500
C266        C  0.24138943  0.00278544  0.99042485     0.23900
C267        C  0.22046053  0.99692469  0.95628234    -0.12100
C268        C  0.17988804  0.99951913  0.95764132     0.05300
C269        C  0.28377860  0.99720522  0.98958653     0.27700
C270        C  0.31032960  0.02840381  0.98112136    -0.12700
C271        C  0.35042357  0.02310911  0.98136012     0.05800
C272        C  0.36412382  0.98673899  0.99062764    -0.08700
C273        C  0.33757102  0.95542151  0.99855160     0.06600
C274        C  0.29748636  0.96061491  0.99790481    -0.13100
Br275      Br  0.24774842  0.98506957  0.90765595    -0.05200
Br276      Br  0.15556342  0.02507041  0.07738835     0.00500
Br277      Br  0.38675103  0.06579853  0.96945559     0.00900
Br278      Br  0.26112099  0.91771300  0.00862418    -0.03500
Br279      Br  0.15251884  0.99376956  0.90967041     0.01000
Br280      Br  0.25121910  0.02245737  0.07199013    -0.02800
Br281      Br  0.29157791  0.07845280  0.96980270    -0.03600
Br282      Br  0.35632935  0.90548609  0.01015925     0.00300
C283        C  0.85353895  0.00103010  0.99907125     0.01700
C284        C  0.83031293  0.00586397  0.03349327     0.04600
C285        C  0.78966122  0.00479700  0.03177729    -0.11500
C286        C  0.77194838  0.00040044  0.99557520     0.23900
C287        C  0.79500075  0.99692209  0.96103438    -0.12100
C288        C  0.83562617  0.99669507  0.96274607     0.05300
C289        C  0.72900111  0.99845883  0.99406099     0.27700
C290        C  0.70860098  0.96214834  0.99296571    -0.12700
C291        C  0.66789872  0.96013745  0.99230281     0.05800
C292        C  0.64734492  0.99444100  0.99380932    -0.08700
C293        C  0.66772533  0.03073311  0.99581685     0.06600
C294        C  0.70849575  0.03275912  0.99488341    -0.13100
Br295      Br  0.77059327  0.99232126  0.91140003    -0.05200
Br296      Br  0.85395632  0.01647570  0.08286624     0.00500
Br297      Br  0.64012903  0.91038130  0.99006510     0.00900
Br298      Br  0.73640963  0.08243940  0.99419403    -0.03500
Br299      Br  0.86626001  0.98853871  0.91526105     0.01000
Br300      Br  0.75791897  0.00893703  0.07910220    -0.02800
Br301      Br  0.73661180  0.91520291  0.99278671    -0.03600
Br302      Br  0.63956400  0.07752934  0.00074922     0.00300
C303        C  0.00610422  0.00020943  0.85325158     0.01700
C304        C  0.98270205  0.97113995  0.83529165     0.04600
C305        C  0.98104190  0.96955297  0.79464007    -0.11500
C306        C  0.00262495  0.99722081  0.77231410     0.23900
C307        C  0.02589143  0.02645237  0.79027223    -0.12100
C308        C  0.02762157  0.02794678  0.83097648     0.05300
C309        C  0.00113594  0.99530665  0.72979435     0.27700
C310        C  0.02888414  0.97459099  0.70808379    -0.12700
C311        C  0.02777908  0.97311784  0.66738770     0.05800
C312        C  0.99960032  0.99318313  0.64874120    -0.08700
C313        C  0.97154918  0.01348155  0.67042817     0.06600
C314        C  0.97203628  0.01417543  0.71119185    -0.13100
Br315      Br  0.05534806  0.06409034  0.75899381    -0.05200
Br316      Br  0.95216760  0.93425312  0.86643258     0.00500
Br317      Br  0.06414728  0.94302257  0.63718513     0.00900
Br318      Br  0.93331094  0.04115617  0.74162540    -0.03500
Br319      Br  0.05970737  0.06740112  0.85631414     0.01000
Br320      Br  0.94933970  0.92968779  0.76935742    -0.02800
Br321      Br  0.06849253  0.94877203  0.73420387    -0.03600
Br322      Br  0.93369675  0.04160399  0.64420581     0.00300
C323        C  0.00828809  0.01340188  0.14939640     0.01700
C324        C  0.98031606  0.03399519  0.17092887     0.04600
C325        C  0.98172318  0.03619089  0.21161205    -0.11500
C326        C  0.01134271  0.01813003  0.23018895     0.23900
C327        C  0.04043110  0.99927013  0.20846819    -0.12100
C328        C  0.03865234  0.99653793  0.16790324     0.05300
C329        C  0.00990972  0.01543762  0.27260887     0.27700
C330        C  0.03282376  0.04133246  0.29510856    -0.12700
C331        C  0.03354820  0.03642344  0.33541636     0.05800
C332        C  0.01061831  0.00632496  0.35284639    -0.08700
C333        C  0.98704513  0.98100794  0.33049299     0.06600
C334        C  0.98696551  0.98532916  0.29011567    -0.13100
Br335      Br  0.08202062  0.97643697  0.23446047    -0.05200
Br336      Br  0.94071423  0.05959868  0.14464968     0.00500
Br337      Br  0.06671028  0.06995549  0.36659655     0.00900
Br338      Br  0.95581294  0.94990910  0.25866076    -0.03500
Br339      Br  0.07659165  0.96811196  0.13782409     0.01000
Br340      Br  0.94295082  0.06307924  0.24209792    -0.02800
Br341      Br  0.06311570  0.08311172  0.27057007    -0.03600
Br342      Br  0.95443320  0.94105797  0.35537365     0.00300
C343        C  0.98102158  0.63833307  0.51060753     0.01700
C344        C  0.94680189  0.65879520  0.50939080     0.04600
C345        C  0.94893112  0.69965589  0.50822992    -0.11500
C346        C  0.98526975  0.72009350  0.50811024     0.23900
C347        C  0.01934928  0.69961079  0.50987443    -0.12100
C348        C  0.01723926  0.65890654  0.51094024     0.05300
C349        C  0.98806514  0.76308349  0.50548535     0.27700
C350        C  0.99110298  0.78065807  0.46871384    -0.12700
C351        C  0.99584345  0.82131207  0.46606802     0.05800
C352        C  0.99698991  0.84470192  0.50036972    -0.08700
C353        C  0.99456906  0.82684374  0.53719967     0.06600
C354        C  0.98997731  0.78624167  0.53967318    -0.13100
Br355      Br  0.06901773  0.72754078  0.51064160    -0.05200
Br356      Br  0.89732307  0.63070645  0.50862262     0.00500
Br357      Br  0.99961881  0.84459786  0.41531685     0.00900
Br358      Br  0.98671261  0.76202005  0.58995476    -0.03500
Br359      Br  0.06416838  0.63102356  0.51210612     0.01000
Br360      Br  0.90229140  0.72784955  0.50667106    -0.02800
Br361      Br  0.98856896  0.74866382  0.42199228    -0.03600
Br362      Br  0.99999143  0.85762818  0.58456209     0.00300
C363        C  0.00861777  0.35688921  0.50964504     0.01700
C364        C  0.04329090  0.33721413  0.50505109     0.04600
C365        C  0.04243824  0.29647497  0.50665741    -0.11500
C366        C  0.00687040  0.27519115  0.51242069     0.23900
C367        C  0.97216160  0.29486757  0.51663534    -0.12100
C368        C  0.97308644  0.33561682  0.51555906     0.05300
C369        C  0.00592824  0.23207385  0.51184126     0.27700
C370        C  0.00773132  0.21180337  0.47584679    -0.12700
C371        C  0.00944404  0.17121058  0.47481357     0.05800
C372        C  0.00759200  0.15026316  0.50986532    -0.08700
C373        C  0.00399043  0.17052674  0.54595516     0.06600
C374        C  0.00392906  0.21138208  0.54692164    -0.13100
Br375      Br  0.92329373  0.26581875  0.52267290    -0.05200
Br376      Br  0.09176188  0.36619961  0.49616408     0.00500
Br377      Br  0.01632630  0.14486750  0.42503510     0.00900
Br378      Br  0.00108773  0.23921326  0.59621880    -0.03500
Br379      Br  0.92555652  0.36252646  0.52153143     0.01000
Br380      Br  0.08991466  0.26955985  0.50037092    -0.02800
Br381      Br  0.00750975  0.23994739  0.42781516    -0.03600
Br382      Br  0.99660618  0.14243191  0.59394115     0.00300
C383        C  0.99411728  0.49952475  0.65461870     0.01700
C384        C  0.01934211  0.52552868  0.67509122     0.04600
C385        C  0.01838221  0.52645704  0.71632657    -0.11500
C386        C  0.99578467  0.49840943  0.73761737     0.23900
C387        C  0.97287428  0.47052701  0.71712456    -0.12100
C388        C  0.97032663  0.47241799  0.67621375     0.05300
C389        C  0.99633424  0.49801521  0.78138463     0.27700
C390        C  0.02881707  0.48507758  0.80015801    -0.12700
C391        C  0.02987830  0.48598317  0.84132313     0.05800
C392        C  0.99766085  0.49794064  0.86434113    -0.08700
C393        C  0.96480872  0.51001728  0.84554440     0.06600
C394        C  0.96442064  0.51071233  0.80437521    -0.13100
Br395      Br  0.94620092  0.42866822  0.74510260    -0.05200
Br396      Br  0.05706176  0.55840797  0.64691121     0.00500
Br397      Br  0.07616721  0.47226695  0.86622826     0.00900
Br398      Br  0.92036177  0.52986406  0.77936080    -0.03500
Br399      Br  0.93356552  0.43800676  0.65007789     0.01000
Br400      Br  0.04770346  0.56660649  0.74378424    -0.02800
Br401      Br  0.07172997  0.46551930  0.76930287    -0.03600
Br402      Br  0.92025944  0.52580929  0.87639932     0.00300
C403        C  0.01746567  0.51022884  0.15447096     0.01700
C404        C  0.98578274  0.52318327  0.17762728     0.04600
C405        C  0.98693598  0.52364949  0.21870706    -0.11500
C406        C  0.01769700  0.50701244  0.23734765     0.23900
C407        C  0.04896028  0.49306754  0.21414844    -0.12100
C408        C  0.04972727  0.49660606  0.17313879     0.05300
C409        C  0.01577001  0.50254899  0.28090452     0.27700
C410        C  0.04189994  0.52361411  0.30502422    -0.12700
C411        C  0.03935857  0.51918101  0.34591178     0.05800
C412        C  0.00788504  0.49754351  0.36362147    -0.08700
C413        C  0.98083888  0.47781447  0.33952907     0.06600
C414        C  0.98643500  0.47809258  0.29856633    -0.13100
Br415      Br  0.08961874  0.46678189  0.23807631    -0.05200
Br416      Br  0.93962892  0.53821017  0.15320207     0.00500
Br417      Br  0.07924878  0.54263007  0.37779490     0.00900
Br418      Br  0.95425252  0.44418420  0.26658645    -0.03500
Br419      Br  0.09490557  0.48245474  0.14230993     0.01000
Br420      Br  0.94608726  0.54718290  0.24950479    -0.02800
Br421      Br  0.08005600  0.56009607  0.28253706    -0.03600
Br422      Br  0.93494430  0.45190612  0.36232614     0.00300
C423        C  0.00676682  0.64605265  0.00681153     0.01700
C424        C  0.04100250  0.66966751  0.00286667     0.04600
C425        C  0.03909390  0.71024276  0.00353572    -0.11500
C426        C  0.00295069  0.72730596  0.00809832     0.23900
C427        C  0.96868281  0.70366886  0.01174496    -0.12100
C428        C  0.97059316  0.66308270  0.01098759     0.05300
C429        C  0.00108972  0.77012551  0.00800134     0.27700
C430        C  0.00534716  0.79196955  0.04284110    -0.12700
C431        C  0.00591014  0.83276558  0.04223026     0.05800
C432        C  0.00126764  0.85184820  0.00681982    -0.08700
C433        C  0.99643420  0.82972803  0.97206155     0.06600
C434        C  0.99648457  0.78903283  0.97267928    -0.13100
Br435      Br  0.91925488  0.72705260  0.01784455    -0.05200
Br436      Br  0.09033925  0.64619988  0.99625714     0.00500
Br437      Br  0.01598792  0.86236467  0.08940719     0.00900
Br438      Br  0.99054079  0.75886616  0.92506782    -0.03500
Br439      Br  0.92373679  0.63056163  0.01553542     0.01000
Br440      Br  0.08592404  0.74264849  0.99815314    -0.02800
Br441      Br  0.01082715  0.76569655  0.09124090    -0.03600
Br442      Br  0.98875374  0.85482477  0.92348280     0.00300
C443        C  0.99639233  0.36153655  0.01360333     0.01700
C444        C  0.03016117  0.34130716  0.00498467     0.04600
C445        C  0.02903602  0.30070350  0.00674661    -0.11500
C446        C  0.99409017  0.28006442  0.01691949     0.23900
C447        C  0.96043091  0.30023181  0.02639017    -0.12100
C448        C  0.96154514  0.34097264  0.02464651     0.05300
C449        C  0.99273415  0.23710022  0.01503648     0.27700
C450        C  0.98852853  0.21796772  0.97872299    -0.12700
C451        C  0.99306744  0.17781571  0.97517503     0.05800
C452        C  0.99954117  0.15606465  0.00856366    -0.08700
C453        C  0.00145260  0.17514334  0.04548020     0.06600
C454        C  0.99906152  0.21569027  0.04844049    -0.13100
Br455      Br  0.91295228  0.27189243  0.04140310    -0.05200
Br456      Br  0.07800224  0.36940483  0.99061432     0.00500
Br457      Br  0.99355906  0.15374942  0.92380651     0.00900
Br458      Br  0.00536168  0.24228511  0.09800555    -0.03500
Br459      Br  0.91553874  0.36874355  0.03734169     0.01000
Br460      Br  0.07537255  0.27305736  0.99500993    -0.02800
Br461      Br  0.97734176  0.24734860  0.93360366    -0.03600
Br462      Br  0.00559636  0.14607774  0.09254671     0.00300
loop_ 
_geom_bond_atom_site_label_1 
_geom_bond_atom_site_label_2 
_geom_bond_distance 
_geom_bond_site_symmetry_2 
_ccdc_geom_bond_type 
N1            C6   1.359       .  A
N1            C5   1.354       .  A
N1           H33   1.033       .  S
N2            C9   1.352       .  A
N2           C10   1.355       .  A
N3            C8   1.354       .  A
N3            C7   1.359       .  A
N3           H34   1.035   1_455  S
N4           C11   1.355       .  A
N4           C12   1.351       .  A
C5           C13   1.389       .  A
C5           C21   1.423   1_455  A
C6           C22   1.425       .  A
C6           C14   1.387       .  A
C7           C15   1.387       .  A
C7           C24   1.424   1_455  A
C8           C23   1.421   1_556  A
C8           C16   1.388       .  A
C9           C21   1.423   1_556  A
C9           C17   1.388       .  A
C10          C24   1.421       .  A
C10          C18   1.385       .  A
C11          C19   1.386       .  A
C11          C22   1.421       .  A
C12          C20   1.388       .  A
C12          C23   1.419       .  A
C13          C14   1.372       .  A
C13          H25   1.082   1_455  S
C14          H26   1.082       .  S
C15          C16   1.374       .  A
C15          H27   1.082       .  S
C16          H28   1.082       .  S
C17          C18   1.375       .  A
C17          H29   1.082       .  S
C18          H30   1.082       .  S
C19          C20   1.372       .  A
C19          H31   1.082       .  S
C20          H32   1.082       .  S
C21         C443   1.491       .  S
C22         C403   1.508       .  S
C23         C423   1.489       .  S
C24         C392   1.509       .  S
N35          C40   1.359   1_655  A
N35          C39   1.354   1_655  A
N35          H67   1.039       .  S
N36          C43   1.351       .  A
N36          C44   1.354       .  A
N37          C42   1.355       .  A
N37          C41   1.358       .  A
N37          H68   1.033   1_655  S
N38          C45   1.354       .  A
N38          C46   1.351       .  A
C39          C47   1.386       .  A
C39          C55   1.417       .  A
C40          C56   1.424   1_455  A
C40          C48   1.388       .  A
C41          C49   1.388       .  A
C41          C58   1.428   1_655  A
C42          C57   1.423       .  A
C42          C50   1.387       .  A
C43          C55   1.416       .  A
C43          C51   1.385       .  A
C44          C58   1.424       .  A
C44          C52   1.388       .  A
C45          C53   1.387       .  A
C45          C56   1.422       .  A
C46          C54   1.386       .  A
C46          C57   1.420       .  A
C47          C48   1.374       .  A
C47          H59   1.082       .  S
C48          H60   1.082       .  S
C49          C50   1.375       .  A
C49          H61   1.082       .  S
C50          H62   1.082       .  S
C51          C52   1.374       .  A
C51          H63   1.082       .  S
C52          H64   1.082       .  S
C53          C54   1.376       .  A
C53          H65   1.082       .  S
C54          H66   1.082       .  S
C55         C363   1.492       .  S
C56         C383   1.512       .  S
C57         C343   1.494       .  S
C58         C412   1.508       .  S
O69          C85   1.273   1_655  A
O69         Zn75   1.989       .  S
C70         C283   1.485   1_554  S
C70          O86   1.271   1_554  A
C70          O83   1.275   1_545  A
O71          C84   1.272       .  A
O71         Cd78   2.063       .  S
O72          C90   1.274   1_665  A
O72         Cd81   2.052       .  S
O73          C87   1.273   1_556  A
O73         Cd77   2.066       .  S
O74          C85   1.273   1_565  A
O74         Cd77   2.045       .  S
Zn75         O86   2.011       .  S
Zn75         O88   2.016       .  S
Zn75         O80   1.935   1_656  S
O76          C87   1.276   1_655  A
O76         Cd81   2.085       .  S
Cd77         O79   2.079       .  S
Cd77         O80   1.991   1_566  S
Cd78         O82   2.075       .  S
Cd78         O91   2.028       .  S
Cd78         O80   1.994       .  S
O79          C89   1.275   1_565  A
O80         Cd81   1.999   1_445  S
Cd81         O83   2.083       .  S
O82          C89   1.274   1_554  A
C84         C452   1.484   1_455  S
C84          O88   1.273   1_454  A
C85         C303   1.451       .  S
C87         C432   1.482       .  S
C89         C263   1.491       .  S
C90         C323   1.448       .  S
C90          O91   1.271       .  A
O92         C108   1.270   1_655  A
O92         Zn98   1.970       .  S
C93         C243   1.482       .  S
C93         O109   1.271   1_565  A
C93         O106   1.273       .  A
O94         C107   1.275       .  A
O94        Cd101   2.089       .  S
O95         C113   1.272   1_655  A
O95        Cd104   2.042       .  S
O96         C110   1.276   1_455  A
O96        Cd100   2.089       .  S
O97         C108   1.273   1_565  A
O97        Cd100   2.046       .  S
Zn98        O109   2.014       .  S
Zn98        O111   2.004       .  S
Zn98        O103   1.933   1_645  S
O99         C110   1.273       .  A
O99        Cd104   2.062       .  S
Cd100       O102   2.081       .  S
Cd100       O103   2.004       .  S
Cd101       O105   2.081       .  S
Cd101       O114   2.042       .  S
Cd101       O103   1.997   1_545  S
O102        C112   1.275       .  A
O103       Cd104   1.992   1_455  S
Cd104       O106   2.070       .  S
O105        C112   1.275   1_545  A
C107        C372   1.485       .  S
C107        O111   1.271   1_455  A
C108        C332   1.446       .  S
C110        C352   1.486       .  S
C112        C223   1.481       .  S
C113        C312   1.450   1_455  S
C113        O114   1.273   1_565  A
N115        C120   1.354       .  A
N115        C119   1.358       .  A
N115        H147   1.035       .  S
N116        C123   1.356       .  A
N116        C124   1.353       .  A
N117        C122   1.357       .  A
N117        C121   1.351       .  A
N117        H148   1.039   1_565  S
N118        C125   1.351       .  A
N118        C126   1.355       .  A
C119        C127   1.388       .  A
C119        C135   1.425       .  A
C120        C136   1.422   1_554  A
C120        C128   1.387       .  A
C121        C129   1.386       .  A
C121        C138   1.415       .  A
C122        C137   1.421       .  A
C122        C130   1.387       .  A
C123        C135   1.423       .  A
C123        C131   1.387       .  A
C124        C138   1.418   1_554  A
C124        C132   1.386       .  A
C125        C133   1.388   1_565  A
C125        C136   1.419       .  A
C126        C134   1.385   1_565  A
C126        C137   1.419       .  A
C127        C128   1.374       .  A
C127        H139   1.081       .  S
C128        H140   1.082       .  S
C129        C130   1.377       .  A
C129        H141   1.082       .  S
C130        H142   1.082       .  S
C131        C132   1.374       .  A
C131        H143   1.082       .  S
C132        H144   1.082       .  S
C133        C134   1.374       .  A
C133        H145   1.082       .  S
C134        H146   1.082       .  S
C135        C212   1.508       .  S
C136        C292   1.492       .  S
C137        C192   1.511       .  S
C138        C272   1.491       .  S
N149        C154   1.356   1_565  A
N149        C153   1.354   1_565  A
N149        H181   1.039       .  S
N150        C157   1.351   1_545  A
N150        C158   1.354   1_545  A
N151        C156   1.353       .  A
N151        C155   1.357       .  A
N151        H182   1.042   1_545  S
N152        C159   1.356       .  A
N152        C160   1.354       .  A
C153        C161   1.387       .  A
C153        C169   1.421   1_545  A
C154        C170   1.424       .  A
C154        C162   1.388       .  A
C155        C163   1.387       .  A
C155        C172   1.422       .  A
C156        C171   1.419       .  A
C156        C164   1.387       .  A
C157        C169   1.416       .  A
C157        C165   1.386       .  A
C158        C172   1.419   1_565  A
C158        C166   1.386       .  A
C159        C167   1.387       .  A
C159        C170   1.423       .  A
C160        C168   1.386       .  A
C160        C171   1.420       .  A
C161        C162   1.374       .  A
C161        H173   1.082       .  S
C162        H174   1.082       .  S
C163        C164   1.377       .  A
C163        H175   1.082       .  S
C164        H176   1.082       .  S
C165        C166   1.373       .  A
C165        H177   1.082       .  S
C166        H178   1.082       .  S
C167        C168   1.374       .  A
C167        H179   1.082   1_545  S
C168        H180   1.082       .  S
C169        C252   1.490       .  S
C170        C183   1.505       .  S
C171        C232   1.495       .  S
C172        C203   1.508       .  S
C183        C184   1.413       .  A
C183        C188   1.412   1_545  A
C184        C185   1.412       .  A
C184       Br196   1.930       .  S
C185        C186   1.414   1_545  A
C185       Br200   1.930       .  S
C186        C187   1.414       .  A
C186        C189   1.502       .  S
C187        C188   1.412       .  A
C187       Br195   1.930       .  S
C188       Br199   1.930       .  S
C189        C190   1.413       .  A
C189        C194   1.412   1_565  A
C190        C191   1.413       .  A
C190       Br201   1.931       .  S
C191        C192   1.417       .  A
C191       Br197   1.931       .  S
C192        C193   1.417   1_565  A
C193        C194   1.412       .  A
C193       Br202   1.932       .  S
C194       Br198   1.931       .  S
C203        C204   1.414       .  A
C203        C208   1.414   1_545  A
C204        C205   1.413       .  A
C204       Br216   1.931       .  S
C205        C206   1.415   1_545  A
C205       Br220   1.931       .  S
C206        C207   1.414       .  A
C206        C209   1.506       .  S
C207        C208   1.412       .  A
C207       Br215   1.931       .  S
C208       Br219   1.931       .  S
C209        C210   1.415   1_565  A
C209        C214   1.415       .  A
C210        C211   1.412       .  A
C210       Br221   1.930       .  S
C211        C212   1.413   1_545  A
C211       Br217   1.930       .  S
C212        C213   1.413       .  A
C213        C214   1.413       .  A
C213       Br222   1.929       .  S
C214       Br218   1.930       .  S
C223        C224   1.410   1_565  A
C223        C228   1.409       .  A
C224        C225   1.411       .  A
C224       Br236   1.928       .  S
C225        C226   1.410       .  A
C225       Br240   1.929       .  S
C226        C227   1.409   1_545  A
C226        C229   1.489       .  S
C227        C228   1.408       .  A
C227       Br235   1.929       .  S
C228       Br239   1.926       .  S
C229        C230   1.409   1_545  A
C229        C234   1.411       .  A
C230        C231   1.408       .  A
C230       Br241   1.929       .  S
C231        C232   1.411   1_565  A
C231       Br237   1.930       .  S
C232        C233   1.411       .  A
C233        C234   1.411       .  A
C233       Br242   1.927       .  S
C234       Br238   1.929       .  S
C243        C244   1.415       .  A
C243        C248   1.414   1_565  A
C244        C245   1.408       .  A
C244       Br256   1.931       .  S
C245        C246   1.407   1_565  A
C245       Br260   1.930       .  S
C246        C247   1.408       .  A
C246        C249   1.484   1_545  S
C247        C248   1.407       .  A
C247       Br255   1.931       .  S
C248       Br259   1.931       .  S
C249        C250   1.409   1_565  A
C249        C254   1.409       .  A
C250        C251   1.407       .  A
C250       Br261   1.929       .  S
C251        C252   1.411   1_545  A
C251       Br257   1.929       .  S
C252        C253   1.409       .  A
C253        C254   1.407       .  A
C253       Br262   1.928       .  S
C254       Br258   1.929       .  S
C263        C264   1.419   1_556  A
C263        C268   1.417   1_545  A
C264        C265   1.410       .  A
C264       Br276   1.932       .  S
C265        C266   1.407   1_554  A
C265       Br280   1.932       .  S
C266        C267   1.407   1_545  A
C266        C269   1.487   1_545  S
C267        C268   1.410       .  A
C267       Br275   1.930       .  S
C268       Br279   1.933       .  S
C269        C270   1.409   1_565  A
C269        C274   1.410       .  A
C270        C271   1.408       .  A
C270       Br281   1.929       .  S
C271        C272   1.411   1_545  A
C271       Br277   1.930       .  S
C272        C273   1.408       .  A
C273        C274   1.408       .  A
C273       Br282   1.928   1_556  S
C274       Br278   1.928   1_556  S
C283        C284   1.413   1_556  A
C283        C288   1.415   1_545  A
C284        C285   1.408       .  A
C284       Br296   1.930       .  S
C285        C286   1.409   1_554  A
C285       Br300   1.930       .  S
C286        C287   1.408   1_545  A
C286        C289   1.487   1_545  S
C287        C288   1.409       .  A
C287       Br295   1.930       .  S
C288       Br299   1.931       .  S
C289        C290   1.410       .  A
C289        C294   1.410   1_565  A
C290        C291   1.407       .  A
C290       Br301   1.930       .  S
C291        C292   1.411       .  A
C291       Br297   1.929       .  S
C292        C293   1.410   1_565  A
C293        C294   1.408       .  A
C293       Br302   1.929   1_556  S
C294       Br298   1.928       .  S
C303        C304   1.406   1_445  A
C303        C308   1.405       .  A
C304        C305   1.398       .  A
C304       Br316   1.928       .  S
C305        C306   1.405   1_655  A
C305       Br320   1.931       .  S
C306        C307   1.407   1_565  A
C306        C309   1.462       .  S
C307        C308   1.400       .  A
C307       Br315   1.930       .  S
C308       Br319   1.930       .  S
C309        C310   1.406       .  A
C309        C314   1.407   1_465  A
C310        C311   1.398       .  A
C310       Br321   1.931       .  S
C311        C312   1.405   1_455  A
C311       Br317   1.928       .  S
C312        C313   1.405   1_565  A
C313        C314   1.399       .  A
C313       Br322   1.929       .  S
C314       Br318   1.930       .  S
C323        C324   1.406   1_455  A
C323        C328   1.405   1_545  A
C324        C325   1.399       .  A
C324       Br336   1.929       .  S
C325        C326   1.406   1_655  A
C325       Br340   1.930       .  S
C326        C327   1.406   1_545  A
C326        C329   1.459       .  S
C327        C328   1.396       .  A
C327       Br335   1.931       .  S
C328       Br339   1.931       .  S
C329        C330   1.405       .  A
C329        C334   1.407   1_445  A
C330        C331   1.398       .  A
C330       Br341   1.930       .  S
C331        C332   1.406       .  A
C331       Br337   1.928       .  S
C332        C333   1.403   1_445  A
C333        C334   1.396       .  A
C333       Br342   1.931       .  S
C334       Br338   1.931       .  S
C343        C344   1.411       .  A
C343        C348   1.410   1_655  A
C344        C345   1.411       .  A
C344       Br356   1.927       .  S
C345        C346   1.411       .  A
C345       Br360   1.928       .  S
C346        C347   1.408   1_655  A
C346        C349   1.488       .  S
C347        C348   1.406       .  A
C347       Br355   1.930       .  S
C348       Br359   1.930       .  S
C349        C350   1.410       .  A
C349        C354   1.408       .  A
C350        C351   1.411       .  A
C350       Br361   1.930       .  S
C351        C352   1.414       .  A
C351       Br357   1.931       .  S
C352        C353   1.416       .  A
C353        C354   1.408       .  A
C353       Br362   1.933       .  S
C354       Br358   1.930       .  S
C363        C364   1.409       .  A
C363        C368   1.411   1_455  A
C364        C365   1.409       .  A
C364       Br376   1.927       .  S
C365        C366   1.411       .  A
C365       Br380   1.929       .  S
C366        C367   1.409   1_455  A
C366        C369   1.488       .  S
C367        C368   1.408       .  A
C367       Br375   1.929       .  S
C368       Br379   1.930       .  S
C369        C370   1.407       .  A
C369        C374   1.410       .  A
C370        C371   1.406       .  A
C370       Br381   1.932       .  S
C371        C372   1.414       .  A
C371       Br377   1.930       .  S
C372        C373   1.413       .  A
C373        C374   1.411       .  A
C373       Br382   1.931   1_455  S
C374       Br378   1.929       .  S
C383        C384   1.417   1_655  A
C383        C388   1.417       .  A
C384        C385   1.413       .  A
C384       Br396   1.931       .  S
C385        C386   1.412   1_455  A
C385       Br400   1.929       .  S
C386        C387   1.411       .  A
C386        C389   1.503       .  S
C387        C388   1.413       .  A
C387       Br395   1.929       .  S
C388       Br399   1.932       .  S
C389        C390   1.413   1_655  A
C389        C394   1.413       .  A
C390        C391   1.414       .  A
C390       Br401   1.930       .  S
C391        C392   1.413   1_455  A
C391       Br397   1.928       .  S
C392        C393   1.413       .  A
C393        C394   1.414       .  A
C393       Br402   1.929       .  S
C394       Br398   1.930       .  S
C403        C404   1.413   1_455  A
C403        C408   1.413       .  A
C404        C405   1.411       .  A
C404       Br416   1.930       .  S
C405        C406   1.415   1_655  A
C405       Br420   1.932       .  S
C406        C407   1.415       .  A
C406        C409   1.504       .  S
C407        C408   1.414       .  A
C407       Br415   1.930       .  S
C408       Br419   1.929       .  S
C409        C410   1.414       .  A
C409        C414   1.414   1_455  A
C410        C411   1.413       .  A
C410       Br421   1.930       .  S
C411        C412   1.414       .  A
C411       Br417   1.931       .  S
C412        C413   1.413   1_455  A
C413        C414   1.411       .  A
C413       Br422   1.930       .  S
C414       Br418   1.931       .  S
C423        C424   1.409       .  A
C423        C428   1.410   1_455  A
C424        C425   1.406       .  A
C424       Br436   1.928   1_554  S
C425        C426   1.410       .  A
C425       Br440   1.929   1_554  S
C426        C427   1.409   1_455  A
C426        C429   1.484       .  S
C427        C428   1.407       .  A
C427       Br435   1.929       .  S
C428       Br439   1.930       .  S
C429        C430   1.409       .  A
C429        C434   1.407   1_454  A
C430        C431   1.409       .  A
C430       Br441   1.929       .  S
C431        C432   1.413       .  A
C431       Br437   1.930       .  S
C432        C433   1.414   1_454  A
C433        C434   1.407       .  A
C433       Br442   1.928       .  S
C434       Br438   1.931       .  S
C443        C444   1.409   1_655  A
C443        C448   1.412       .  A
C444        C445   1.404       .  A
C444       Br456   1.929   1_554  S
C445        C446   1.409   1_455  A
C445       Br460   1.930   1_554  S
C446        C447   1.409       .  A
C446        C449   1.483       .  S
C447        C448   1.409       .  A
C447       Br455   1.928       .  S
C448       Br459   1.929       .  S
C449        C450   1.407   1_554  A
C449        C454   1.407       .  A
C450        C451   1.406       .  A
C450       Br461   1.931       .  S
C451        C452   1.414   1_556  A
C451       Br457   1.932       .  S
C452        C453   1.418   1_655  A
C453        C454   1.409   1_455  A
C453       Br462   1.933       .  S
C454       Br458   1.930   1_655  S
