geometry optimzed in LAMMPS
_audit_creation_date              2020-11-30 
_audit_creation_method            'lammps2cif' 
_symmetry_space_group_name_H-M    'P1' 
_symmetry_Int_Tables_number       1 
_symmetry_cell_setting            triclinic 
loop_ 
_symmetry_equiv_pos_as_xyz 
  x,y,z 
_cell_length_a                    37.4269942 
_cell_length_b                    30.069785711627407 
_cell_length_c                    40.190541685085485 
_cell_angle_alpha                 86.33044546643808 
_cell_angle_beta                  80.58349325453455 
_cell_angle_gamma                 89.84322129550456 
loop_ 
_atom_site_label 
_atom_site_type_symbol 
_atom_site_fract_x 
_atom_site_fract_y 
_atom_site_fract_z 
_atom_site_charge 
O1          O  0.03268300  0.04592664  0.02413923    -0.75300
O2          O  0.45641947  0.45962407  0.03221865    -0.75300
O3          O  0.02942405  0.45601652  0.03055790    -0.75400
O4          O  0.46020977  0.04934361  0.02543923    -0.75400
O5          O  0.46856515  0.04597613  0.46945321    -0.75400
O6          O  0.03796703  0.45348732  0.47451050    -0.75400
O7          O  0.46541248  0.45613580  0.47619764    -0.75300
O8          O  0.04135861  0.04309708  0.46807454    -0.75400
Ni9        Ni  0.49440009  0.50274302  0.03010371     1.25400
Ni10       Ni  0.00359648  0.99963370  0.47007182     1.25400
C11         C  0.04989804  0.05830288  0.49482349     0.86900
C12         C  0.44799585  0.44414692  0.50554214     0.86800
C13         C  0.04561299  0.43994410  0.00333335     0.86800
C14         C  0.45259123  0.06255306  0.99649206     0.87000
O15         O  0.45913849  0.45830862  0.28199458    -0.75900
O16         O  0.03317640  0.04842329  0.27163450    -0.75300
O17         O  0.46068565  0.04802853  0.27318976    -0.75400
O18         O  0.03206582  0.45841234  0.28055703    -0.75400
O19         O  0.04011199  0.45239584  0.22481998    -0.75400
O20         O  0.46927108  0.04301087  0.21734331    -0.75400
O21         O  0.04232308  0.04223646  0.21587786    -0.75300
O22         O  0.46765137  0.45313547  0.22616712    -0.75400
Ni23       Ni  0.49598270  0.50342044  0.27882878     1.25400
Ni24       Ni  0.00514773  0.99760660  0.21905038     1.25400
C25         C  0.45084106  0.44129471  0.25577928     0.86900
C26         C  0.05031945  0.05966701  0.24203441     0.86800
C27         C  0.45282976  0.05987408  0.24410855     0.86800
C28         C  0.04805223  0.44083622  0.25394170     0.87000
O29         O  0.18836558  0.33566847  0.02915845    -0.81800
O30         O  0.32109185  0.20712406  0.01053985    -0.66500
O31         O  0.25015730  0.29385989  0.49480579    -1.13100
C32         C  0.17710377  0.16730571  0.48816945     1.05100
O33         O  0.30956423  0.16580124  0.46986896    -0.79700
O34         O  0.25894740  0.19239411  0.43339029    -0.67300
Ni35       Ni  0.24024027  0.34134446  0.02463911     1.34900
C36         C  0.24301455  0.22753582  0.42511904     0.83800
O37         O  0.32306808  0.29566500  0.00126130    -0.80200
O38         O  0.29106447  0.35333074  0.02296202    -0.90500
C39         C  0.32967052  0.17632896  0.49075400     0.83400
O40         O  0.23775620  0.30644375  0.06604738    -0.68700
O41         O  0.20677025  0.14732881  0.47879870    -0.88000
C42         C  0.25549223  0.27255385  0.07369845     0.84200
C43         C  0.32092743  0.33467119  0.01194103     1.05800
H44         H  0.24105803  0.19605190  0.02700936     0.37600
O45         O  0.24821972  0.20874297  0.00418789    -1.10600
O46         O  0.22379868  0.25116599  0.44628172    -0.67300
Ni47       Ni  0.21240564  0.25124983  0.49506922     1.26300
O48         O  0.27606264  0.25103585  0.05209207    -0.67500
O49         O  0.17524329  0.20735607  0.49670965    -0.79800
C50         C  0.16885042  0.32605318  0.00754420     0.83600
O51         O  0.17787969  0.29590832  0.48723964    -0.67000
Ni52       Ni  0.25762687  0.15975889  0.47566872     1.27400
Ni53       Ni  0.28617050  0.25142773  0.00328712     1.26100
H54         H  0.25719001  0.30737979  0.47222287     0.38200
O55         O  0.19207453  0.33682191  0.28037790    -0.81800
O56         O  0.32035051  0.20168717  0.26073280    -0.66500
O57         O  0.25287042  0.29309130  0.24602385    -1.13100
C58         C  0.17706344  0.17042493  0.23427079     1.05100
O59         O  0.30948923  0.16599513  0.21702251    -0.79700
O60         O  0.25913288  0.19540651  0.18101269    -0.67300
Ni61       Ni  0.24410848  0.33983215  0.27659704     1.34900
C62         C  0.24457646  0.23194668  0.17367329     0.83800
O63         O  0.32560106  0.29029240  0.25423320    -0.80200
O64         O  0.29525801  0.34934706  0.27551508    -0.90500
C65         C  0.32897270  0.17283182  0.23929519     0.83400
O66         O  0.24023047  0.30357432  0.31755631    -0.68700
O67         O  0.20649258  0.14968264  0.22532111    -0.88000
C68         C  0.25584764  0.26776821  0.32483995     0.84200
C69         C  0.32459217  0.32932432  0.26484121     1.05800
H70         H  0.24039470  0.19408874  0.27492030     0.37600
O71         O  0.24841552  0.20795650  0.25259212    -1.10600
O72         O  0.22631941  0.25552502  0.19545954    -0.67300
Ni73       Ni  0.21402145  0.25254944  0.24421894     1.26300
O74         O  0.27555842  0.24555106  0.30302930    -0.67500
O75         O  0.17586735  0.21034824  0.24331565    -0.79800
C76         C  0.17213522  0.32833939  0.25876628     0.83600
O77         O  0.18077251  0.29907250  0.23761907    -0.67000
Ni78       Ni  0.25748223  0.16073490  0.22249313     1.27400
Ni79       Ni  0.28727949  0.24834713  0.25413180     1.26100
H80         H  0.26087713  0.30724776  0.22379646     0.38200
C81         C  0.24708406  0.24111267  0.38971195    -0.14200
C82         C  0.25120250  0.25216994  0.35988911    -0.15700
C83         C  0.25220219  0.25815915  0.10884629    -0.14200
C84         C  0.24875584  0.24694772  0.13857903    -0.15700
C85         C  0.08858760  0.37985716  0.23057870    -0.14200
C86         C  0.07703990  0.40809995  0.25672538     0.07900
C87         C  0.09510879  0.40701907  0.28471619    -0.14200
C88         C  0.12533264  0.38005997  0.28574143    -0.14200
C89         C  0.13789972  0.35312592  0.25898961     0.07900
C90         C  0.11861284  0.35233235  0.23181769    -0.14200
H91         H  0.07487842  0.37974363  0.20884898     0.11900
H92         H  0.08681841  0.42841254  0.30523393     0.11900
H93         H  0.13937226  0.38114985  0.30719880     0.11900
H94         H  0.12750263  0.33172539  0.21093973     0.11900
C95         C  0.41688084  0.38099433  0.23347558    -0.14200
C96         C  0.42062808  0.40875503  0.25959311     0.07900
C97         C  0.39389710  0.40723647  0.28859710    -0.14200
C98         C  0.36311870  0.38034457  0.29067600    -0.14200
C99         C  0.35892712  0.35356442  0.26421229     0.07900
C100        C  0.38648409  0.35318185  0.23597159    -0.14200
H101        H  0.43712317  0.38137462  0.21087011     0.11900
H102        H  0.39600586  0.42826862  0.30909137     0.11900
H103        H  0.34222779  0.38101236  0.31274156     0.11900
H104        H  0.38368321  0.33298014  0.21516329     0.11900
C105        C  0.37968552  0.14448675  0.26818213    -0.14200
C106        C  0.36259500  0.14709823  0.23951772     0.07900
C107        C  0.37686746  0.12299561  0.21159833    -0.14200
C108        C  0.40712834  0.09603365  0.21259240    -0.14200
C109        C  0.42341942  0.09212867  0.24170597     0.07900
C110        C  0.40968514  0.11702626  0.26934832    -0.14200
H111        H  0.36919971  0.16256657  0.29010774     0.11900
H112        H  0.36432769  0.12445740  0.18910607     0.11900
H113        H  0.41699964  0.07709114  0.19097477     0.11900
H114        H  0.42174328  0.11470400  0.29211983     0.11900
C115        C  0.14167512  0.11319330  0.21108327    -0.14200
C116        C  0.14287494  0.14597326  0.23426983     0.07900
C117        C  0.11215615  0.15262351  0.25860481    -0.14200
C118        C  0.08152850  0.12516453  0.26083845    -0.14200
C119        C  0.08082555  0.09162651  0.23812021     0.07900
C120        C  0.11081428  0.08669104  0.21272331    -0.14200
H121        H  0.16491687  0.10756401  0.19195143     0.11900
H122        H  0.11244833  0.17762752  0.27679816     0.11900
H123        H  0.05861689  0.12968523  0.28056494     0.11900
H124        H  0.11102946  0.06095630  0.19502391     0.11900
C125        C  0.08765815  0.39718132  0.03543583    -0.14200
C126        C  0.07452445  0.40665512  0.00500795     0.07900
C127        C  0.09099652  0.38637517  0.97579712    -0.14200
C128        C  0.12070012  0.35824785  0.97685413    -0.14200
C129        C  0.13472690  0.35052222  0.00700202     0.07900
C130        C  0.11757367  0.36966521  0.03635791    -0.14200
H131        H  0.07563124  0.41226145  0.05834518     0.11900
H132        H  0.08150477  0.39307740  0.95193693     0.11900
H133        H  0.13364209  0.34414574  0.95382752     0.11900
H134        H  0.12777788  0.36405812  0.05997966     0.11900
C135        C  0.38811706  0.41552387  0.03555390    -0.14200
C136        C  0.41691985  0.41333716  0.00853460     0.07900
C137        C  0.41468106  0.38346830  0.48346388    -0.14200
C138        C  0.38393320  0.35658302  0.48519116    -0.14200
C139        C  0.35458722  0.36008659  0.01150960     0.07900
C140        C  0.35701764  0.38954876  0.03678628    -0.14200
H141        H  0.38909171  0.43849344  0.05508375     0.11900
H142        H  0.43658382  0.38118401  0.46240676     0.11900
H143        H  0.38255323  0.33420769  0.46535497     0.11900
H144        H  0.33475516  0.39262342  0.05741756     0.11900
C145        C  0.37938088  0.12956353  0.46291137    -0.14200
C146        C  0.36390409  0.15203728  0.49125874     0.07900
C147        C  0.37975066  0.14791054  0.02065864    -0.14200
C148        C  0.40938212  0.11977398  0.02220935    -0.14200
C149        C  0.42395413  0.09597882  0.49418076     0.07900
C150        C  0.40921727  0.10210724  0.46427123    -0.14200
H151        H  0.36787271  0.13239610  0.43983458     0.11900
H152        H  0.36825187  0.16481143  0.04289301     0.11900
H153        H  0.42030969  0.11582860  0.04555547     0.11900
H154        H  0.41981973  0.08429893  0.44223833     0.11900
C155        C  0.08411902  0.11718331  0.01808548    -0.14200
C156        C  0.08089338  0.08921958  0.49198437     0.07900
C157        C  0.10875824  0.08888394  0.46400135    -0.14200
C158        C  0.13991037  0.11471859  0.46272865    -0.14200
C159        C  0.14329812  0.14224768  0.48893967     0.07900
C160        C  0.11492523  0.14400288  0.51634183    -0.14200
H161        H  0.06298833  0.11799293  0.03994433     0.11900
H162        H  0.10705950  0.06742318  0.44366647     0.11900
H163        H  0.16150134  0.11307412  0.44131563     0.11900
H164        H  0.11717350  0.16488156  0.03690196     0.11900
O165        O  0.03268325  0.04592648  0.52413880    -0.75300
O166        O  0.45641926  0.45962415  0.53221891    -0.75300
O167        O  0.02942393  0.45601699  0.53055803    -0.75400
O168        O  0.46020959  0.04934344  0.52543947    -0.75400
O169        O  0.46856520  0.04597602  0.96945300    -0.75400
O170        O  0.03796703  0.45348690  0.97451037    -0.75400
O171        O  0.46541267  0.45613589  0.97619737    -0.75300
O172        O  0.04135857  0.04309719  0.96807497    -0.75400
Ni173      Ni  0.49440001  0.50274298  0.53010384     1.25400
Ni174      Ni  0.00359653  0.99963377  0.97007203     1.25400
C175        C  0.04989789  0.05830302  0.99482396     0.86900
C176        C  0.44799604  0.44414695  0.00554185     0.86800
C177        C  0.04561295  0.43994456  0.50333350     0.86800
C178        C  0.45259109  0.06255300  0.49649231     0.87000
O179        O  0.45913840  0.45830843  0.78199409    -0.75900
O180        O  0.03317640  0.04842284  0.77163462    -0.75300
O181        O  0.46068545  0.04802878  0.77318959    -0.75400
O182        O  0.03206620  0.45841287  0.78055702    -0.75400
O183        O  0.04011217  0.45239617  0.72482000    -0.75400
O184        O  0.46927079  0.04301083  0.71734317    -0.75400
O185        O  0.04232314  0.04223612  0.71587796    -0.75300
O186        O  0.46765143  0.45313577  0.72616659    -0.75400
Ni187      Ni  0.49598272  0.50342011  0.77882863     1.25400
Ni188      Ni  0.00514772  0.99760643  0.71905036     1.25400
C189        C  0.45084102  0.44129480  0.75577867     0.86900
C190        C  0.05031948  0.05966658  0.74203455     0.86800
C191        C  0.45282940  0.05987402  0.74410838     0.86800
C192        C  0.04805252  0.44083665  0.75394170     0.87000
O193        O  0.18836565  0.33566904  0.52915827    -0.81800
O194        O  0.32109190  0.20712421  0.51053961    -0.66500
O195        O  0.25015745  0.29385993  0.99480591    -1.13100
C196        C  0.17710377  0.16730575  0.98816957     1.05100
O197        O  0.30956423  0.16580152  0.96986894    -0.79700
O198        O  0.25894716  0.19239365  0.93339029    -0.67300
Ni199      Ni  0.24024033  0.34134442  0.52463907     1.34900
C200        C  0.24301480  0.22753571  0.92511892     0.83800
O201        O  0.32306806  0.29566501  0.50126083    -0.80200
O202        O  0.29106454  0.35333032  0.52296228    -0.90500
C203        C  0.32967050  0.17632899  0.99075407     0.83400
O204        O  0.23775588  0.30644336  0.56604718    -0.68700
O205        O  0.20677024  0.14732860  0.97879924    -0.88000
C206        C  0.25549210  0.27255361  0.57369821     0.84200
C207        C  0.32092747  0.33467094  0.51194099     1.05800
H208        H  0.24105820  0.19605171  0.52700936     0.37600
O209        O  0.24821973  0.20874287  0.50418786    -1.10600
O210        O  0.22379923  0.25116627  0.94628152    -0.67300
Ni211      Ni  0.21240580  0.25125001  0.99506902     1.26300
O212        O  0.27606279  0.25103595  0.55209183    -0.67500
O213        O  0.17524336  0.20735638  0.99670920    -0.79800
C214        C  0.16885024  0.32605326  0.50754435     0.83600
O215        O  0.17788008  0.29590862  0.98723924    -0.67000
Ni216      Ni  0.25762687  0.15975886  0.97566891     1.27400
Ni217      Ni  0.28617047  0.25142774  0.50328688     1.26100
H218        H  0.25719032  0.30737985  0.97222302     0.38200
O219        O  0.19207426  0.33682085  0.78037815    -0.81800
O220        O  0.32035030  0.20168695  0.76073233    -0.66500
O221        O  0.25287025  0.29309108  0.74602360    -1.13100
C222        C  0.17706335  0.17042449  0.73427078     1.05100
O223        O  0.30948904  0.16599551  0.71702178    -0.79700
O224        O  0.25913206  0.19540583  0.68101236    -0.67300
Ni225      Ni  0.24410828  0.33983195  0.77659672     1.34900
C226        C  0.24457601  0.23194625  0.67367297     0.83800
O227        O  0.32560089  0.29029228  0.75423289    -0.80200
O228        O  0.29525787  0.34934745  0.77551404    -0.90500
C229        C  0.32897239  0.17283169  0.73929464     0.83400
O230        O  0.24023110  0.30357451  0.81755616    -0.68700
O231        O  0.20649244  0.14968198  0.72532142    -0.88000
C232        C  0.25584800  0.26776815  0.82483972     0.84200
C233        C  0.32459201  0.32932449  0.76484041     1.05800
H234        H  0.24039453  0.19408861  0.77491995     0.37600
O235        O  0.24841536  0.20795633  0.75259175    -1.10600
O236        O  0.22631937  0.25552494  0.69545922    -0.67300
Ni237      Ni  0.21402131  0.25254925  0.74421860     1.26300
O238        O  0.27555831  0.24555069  0.80302897    -0.67500
O239        O  0.17586726  0.21034804  0.74331518    -0.79800
C240        C  0.17213506  0.32833893  0.75876629     0.83600
O241        O  0.18077241  0.29907238  0.73761881    -0.67000
Ni242      Ni  0.25748207  0.16073463  0.72249288     1.27400
Ni243      Ni  0.28727932  0.24834696  0.75413146     1.26100
H244        H  0.26087696  0.30724757  0.72379621     0.38200
C245        C  0.24708451  0.24111252  0.88971177    -0.14200
C246        C  0.25120299  0.25216987  0.85988892    -0.15700
C247        C  0.25220194  0.25815873  0.60884600    -0.14200
C248        C  0.24875544  0.24694724  0.63857872    -0.15700
C249        C  0.08858788  0.37985768  0.73057853    -0.14200
C250        C  0.07704012  0.40810024  0.75672536     0.07900
C251        C  0.09510878  0.40701883  0.78471633    -0.14200
C252        C  0.12533249  0.38005946  0.78574160    -0.14200
C253        C  0.13789965  0.35312568  0.75898964     0.07900
C254        C  0.11861298  0.35233263  0.73181754    -0.14200
H255        H  0.07487888  0.37974451  0.70884869     0.11900
H256        H  0.08681832  0.42841206  0.80523421     0.11900
H257        H  0.13937194  0.38114893  0.80719911     0.11900
H258        H  0.12750282  0.33172588  0.71093947     0.11900
C259        C  0.41687999  0.38099595  0.73347397    -0.14200
C260        C  0.42062799  0.40875513  0.75959223     0.07900
C261        C  0.39389774  0.40723505  0.78859681    -0.14200
C262        C  0.36311930  0.38034320  0.79067566    -0.14200
C263        C  0.35892699  0.35356459  0.76421128     0.07900
C264        C  0.38648322  0.35318352  0.73596990    -0.14200
H265        H  0.43712173  0.38137740  0.71086802     0.11900
H266        H  0.39600708  0.42826594  0.80909168     0.11900
H267        H  0.34222895  0.38100979  0.81274173     0.11900
H268        H  0.38368173  0.33298300  0.71516109     0.11900
C269        C  0.37968443  0.14448563  0.76818206    -0.14200
C270        C  0.36259444  0.14709772  0.73951734     0.07900
C271        C  0.37686723  0.12299550  0.71159783    -0.14200
C272        C  0.40712811  0.09603357  0.71259201    -0.14200
C273        C  0.42341883  0.09212823  0.74170580     0.07900
C274        C  0.40968403  0.11702519  0.76934835    -0.14200
H275        H  0.36919828  0.16256504  0.79010780     0.11900
H276        H  0.36432778  0.12445771  0.68910537     0.11900
H277        H  0.41699978  0.07709146  0.69097425     0.11900
H278        H  0.42174180  0.11470258  0.79212007     0.11900
C279        C  0.14167491  0.11319319  0.71108317    -0.14200
C280        C  0.14287486  0.14597283  0.73426994     0.07900
C281        C  0.11215626  0.15262277  0.75860521    -0.14200
C282        C  0.08152864  0.12516376  0.76083888    -0.14200
C283        C  0.08082555  0.09162607  0.73812040     0.07900
C284        C  0.11081410  0.08669093  0.71272325    -0.14200
H285        H  0.16491654  0.10756418  0.69195113     0.11900
H286        H  0.11244860  0.17762653  0.77679872     0.11900
H287        H  0.05861716  0.12968420  0.78056556     0.11900
H288        H  0.11102915  0.06095644  0.69502366     0.11900
C289        C  0.08765855  0.39718243  0.53543589    -0.14200
C290        C  0.07452441  0.40665556  0.50500816     0.07900
C291        C  0.09099597  0.38637485  0.47579750    -0.14200
C292        C  0.12069949  0.35824736  0.47685453    -0.14200
C293        C  0.13472671  0.35052235  0.50700224     0.07900
C294        C  0.11757399  0.36966618  0.53635797    -0.14200
H295        H  0.07563206  0.41226320  0.55834510     0.11900
H296        H  0.08150387  0.39307655  0.45193743     0.11900
H297        H  0.13364107  0.34414464  0.45382803     0.11900
H298        H  0.12777855  0.36405963  0.55997960     0.11900
C299        C  0.38811726  0.41552284  0.53555455    -0.14200
C300        C  0.41691976  0.41333696  0.50853489     0.07900
C301        C  0.41468133  0.38346786  0.98346398    -0.14200
C302        C  0.38393341  0.35658265  0.98519137    -0.14200
C303        C  0.35458726  0.36008623  0.51150971     0.07900
C304        C  0.35701789  0.38954764  0.53678685    -0.14200
H305        H  0.38909207  0.43849184  0.55508473     0.11900
H306        H  0.43658431  0.38118298  0.96240714     0.11900
H307        H  0.38255360  0.33420674  0.96535551     0.11900
H308        H  0.33475561  0.39262167  0.55741840     0.11900
C309        C  0.37938085  0.12956357  0.96291129    -0.14200
C310        C  0.36390411  0.15203729  0.99125870     0.07900
C311        C  0.37975052  0.14791051  0.52065875    -0.14200
C312        C  0.40938191  0.11977387  0.52220957    -0.14200
C313        C  0.42395428  0.09597893  0.99418052     0.07900
C314        C  0.40921731  0.10210734  0.96427105    -0.14200
H315        H  0.36787260  0.13239613  0.93983455     0.11900
H316        H  0.36825166  0.16481142  0.54289309     0.11900
H317        H  0.42030940  0.11582847  0.54555573     0.11900
H318        H  0.41981973  0.08429905  0.94223813     0.11900
C319        C  0.08411960  0.11718211  0.51808560    -0.14200
C320        C  0.08089328  0.08921961  0.99198485     0.07900
C321        C  0.10875865  0.08888272  0.96400234    -0.14200
C322        C  0.13991078  0.11471736  0.96272955    -0.14200
C323        C  0.14329808  0.14224770  0.98893994     0.07900
C324        C  0.11492469  0.14400412  0.01634158    -0.14200
H325        H  0.06298933  0.11799080  0.53994485     0.11900
H326        H  0.10706029  0.06742101  0.94366796     0.11900
H327        H  0.16150211  0.11307191  0.94131695     0.11900
H328        H  0.11717442  0.16487935  0.53690269     0.11900
O329        O  0.03268328  0.54592625  0.02413893    -0.75300
O330        O  0.45641928  0.95962426  0.03221884    -0.75300
O331        O  0.02942390  0.95601684  0.03055817    -0.75400
O332        O  0.46020966  0.54934345  0.02543936    -0.75400
O333        O  0.46856521  0.54597606  0.46945313    -0.75400
O334        O  0.03796702  0.95348706  0.47451034    -0.75400
O335        O  0.46541266  0.95613586  0.47619747    -0.75300
O336        O  0.04135852  0.54309734  0.46807485    -0.75400
Ni337      Ni  0.49440005  0.00274305  0.03010373     1.25400
Ni338      Ni  0.00359649  0.49963392  0.47007192     1.25400
C339        C  0.04989781  0.55830320  0.49482384     0.86900
C340        C  0.44799602  0.94414690  0.50554194     0.86800
C341        C  0.04561292  0.93994440  0.00333364     0.86800
C342        C  0.45259116  0.56255305  0.99649221     0.87000
O343        O  0.45913850  0.95830829  0.28199432    -0.75900
O344        O  0.03317639  0.54842276  0.27163466    -0.75300
O345        O  0.46068543  0.54802871  0.27318969    -0.75400
O346        O  0.03206620  0.95841287  0.28055704    -0.75400
O347        O  0.04011220  0.95239617  0.22482002    -0.75400
O348        O  0.46927069  0.54301067  0.21734329    -0.75400
O349        O  0.04232317  0.54223615  0.21587799    -0.75300
O350        O  0.46765146  0.95313558  0.22616682    -0.75400
Ni351      Ni  0.49598277  0.00342004  0.27882877     1.25400
Ni352      Ni  0.00514771  0.49760650  0.21905033     1.25400
C353        C  0.45084111  0.94129459  0.25577891     0.86900
C354        C  0.05031948  0.55966657  0.24203461     0.86800
C355        C  0.45282932  0.55987388  0.24410850     0.86800
C356        C  0.04805255  0.94083668  0.25394173     0.87000
O357        O  0.18836556  0.83566905  0.02915836    -0.81800
O358        O  0.32109197  0.70712437  0.01053975    -0.66500
O359        O  0.25015749  0.79385984  0.49480591    -1.13100
C360        C  0.17710362  0.66730593  0.48816964     1.05100
O361        O  0.30956410  0.66580096  0.46986931    -0.79700
O362        O  0.25894734  0.69239373  0.43339047    -0.67300
Ni363      Ni  0.24024024  0.84134447  0.02463920     1.34900
C364        C  0.24301480  0.72753564  0.42511908     0.83800
O365        O  0.32306801  0.79566518  0.00126099    -0.80200
O366        O  0.29106443  0.85333044  0.02296244    -0.90500
C367        C  0.32967043  0.67632874  0.49075430     0.83400
O368        O  0.23775577  0.80644341  0.06604732    -0.68700
O369        O  0.20677006  0.64732883  0.47879913    -0.88000
C370        C  0.25549203  0.77255371  0.07369837     0.84200
C371        C  0.32092738  0.83467112  0.01194114     1.05800
H372        H  0.24105826  0.69605174  0.02700952     0.37600
O373        O  0.24821978  0.70874290  0.00418803    -1.10600
O374        O  0.22379907  0.75116606  0.44628168    -0.67300
Ni375      Ni  0.21240575  0.75124998  0.49506918     1.26300
O376        O  0.27606278  0.75103607  0.05209200    -0.67500
O377        O  0.17524325  0.70735643  0.49670952    -0.79800
C378        C  0.16885016  0.82605314  0.00754448     0.83600
O379        O  0.17788005  0.79590864  0.48723938    -0.67000
Ni380      Ni  0.25762671  0.65975876  0.47566905     1.27400
Ni381      Ni  0.28617047  0.75142784  0.00328705     1.26100
H382        H  0.25719034  0.80737969  0.47222299     0.38200
O383        O  0.19207448  0.83682139  0.28037816    -0.81800
O384        O  0.32035028  0.70168691  0.26073245    -0.66500
O385        O  0.25287033  0.79309119  0.24602378    -1.13100
C386        C  0.17706324  0.67042469  0.23427100     1.05100
O387        O  0.30948893  0.66599551  0.21702192    -0.79700
O388        O  0.25913193  0.69540590  0.18101255    -0.67300
Ni389      Ni  0.24410848  0.83983203  0.27659695     1.34900
C390        C  0.24457594  0.73194637  0.17367315     0.83800
O391        O  0.32560099  0.79029220  0.25423295    -0.80200
O392        O  0.29525808  0.84934717  0.27551453    -0.90500
C393        C  0.32897232  0.67283163  0.23929477     0.83400
O394        O  0.24023097  0.80357439  0.31755632    -0.68700
O395        O  0.20649232  0.64968214  0.22532167    -0.88000
C396        C  0.25584797  0.76776811  0.32483988     0.84200
C397        C  0.32459218  0.82932426  0.26484071     1.05800
H398        H  0.24039450  0.69408873  0.27492016     0.37600
O399        O  0.24841532  0.70795643  0.25259195    -1.10600
O400        O  0.22631937  0.75552511  0.19545941    -0.67300
Ni401      Ni  0.21402133  0.75254942  0.24421880     1.26300
O402        O  0.27555841  0.74555078  0.30302912    -0.67500
O403        O  0.17586719  0.71034825  0.24331539    -0.79800
C404        C  0.17213523  0.82833929  0.25876638     0.83600
O405        O  0.18077249  0.79907259  0.23761901    -0.67000
Ni406      Ni  0.25748195  0.66073472  0.22249308     1.27400
Ni407      Ni  0.28727935  0.74834698  0.25413160     1.26100
H408        H  0.26087704  0.80724769  0.22379639     0.38200
C409        C  0.24708450  0.74111245  0.38971193    -0.14200
C410        C  0.25120296  0.75216979  0.35988908    -0.15700
C411        C  0.25220187  0.75815884  0.10884617    -0.14200
C412        C  0.24875537  0.74694735  0.13857889    -0.15700
C413        C  0.08858801  0.87985782  0.23057859    -0.14200
C414        C  0.07704021  0.90810039  0.25672539     0.07900
C415        C  0.09510890  0.90701912  0.28471635    -0.14200
C416        C  0.12533266  0.88005985  0.28574162    -0.14200
C417        C  0.13789983  0.85312603  0.25898969     0.07900
C418        C  0.11861315  0.85233286  0.23181761    -0.14200
H419        H  0.07487900  0.87974456  0.20884876     0.11900
H420        H  0.08681842  0.92841239  0.30523420     0.11900
H421        H  0.13937212  0.88114941  0.30719912     0.11900
H422        H  0.12750302  0.83172608  0.21093956     0.11900
C423        C  0.41688003  0.88099588  0.23347416    -0.14200
C424        C  0.42062816  0.90875482  0.25959253     0.07900
C425        C  0.39389809  0.90723441  0.28859726    -0.14200
C426        C  0.36311966  0.88034255  0.29067612    -0.14200
C427        C  0.35892719  0.85356425  0.26421161     0.07900
C428        C  0.38648327  0.85318345  0.23597009    -0.14200
H429        H  0.43712163  0.88137757  0.21086810     0.11900
H430        H  0.39600755  0.92826509  0.30909222     0.11900
H431        H  0.34222943  0.88100891  0.31274230     0.11900
H432        H  0.38368165  0.83298316  0.21516118     0.11900
C433        C  0.37968464  0.64448593  0.26818199    -0.14200
C434        C  0.36259433  0.64709757  0.23951745     0.07900
C435        C  0.37686680  0.62299484  0.21159813    -0.14200
C436        C  0.40712767  0.59603289  0.21259230    -0.14200
C437        C  0.42341871  0.59212804  0.24170591     0.07900
C438        C  0.40968422  0.61702547  0.26934828    -0.14200
H439        H  0.36919875  0.66256574  0.29010758     0.11900
H440        H  0.36432711  0.62445667  0.18910581     0.11900
H441        H  0.41699907  0.57709039  0.19097469     0.11900
H442        H  0.42174226  0.61470323  0.29211985     0.11900
C443        C  0.14167485  0.61319344  0.21108330    -0.14200
C444        C  0.14287476  0.64597303  0.23427012     0.07900
C445        C  0.11215615  0.65262285  0.25860540    -0.14200
C446        C  0.08152856  0.62516377  0.26083904    -0.14200
C447        C  0.08082552  0.59162612  0.23812051     0.07900
C448        C  0.11081407  0.58669111  0.21272334    -0.14200
H449        H  0.16491648  0.60756451  0.19195125     0.11900
H450        H  0.11244845  0.67762656  0.27679896     0.11900
H451        H  0.05861708  0.62968412  0.28056573     0.11900
H452        H  0.11102917  0.56095666  0.19502371     0.11900
C453        C  0.08765828  0.89718192  0.03543609    -0.14200
C454        C  0.07452432  0.90665533  0.00500830     0.07900
C455        C  0.09099602  0.88637486  0.97579758    -0.14200
C456        C  0.12069954  0.85824737  0.97685459    -0.14200
C457        C  0.13472660  0.85052212  0.00700237     0.07900
C458        C  0.11757371  0.86966566  0.03635816    -0.14200
H459        H  0.07563165  0.91226248  0.05834534     0.11900
H460        H  0.08150405  0.89307678  0.95193746     0.11900
H461        H  0.13364125  0.84414488  0.95382805     0.11900
H462        H  0.12777815  0.86405890  0.05997982     0.11900
C463        C  0.38811704  0.91552354  0.03555432    -0.14200
C464        C  0.41691971  0.91333714  0.00853488     0.07900
C465        C  0.41468149  0.88346763  0.48346407    -0.14200
C466        C  0.38393361  0.85658235  0.48519143    -0.14200
C467        C  0.35458716  0.86008648  0.01150981     0.07900
C468        C  0.35701765  0.88954836  0.03678667    -0.14200
H469        H  0.38909174  0.93849290  0.05508429     0.11900
H470        H  0.43658452  0.88118276  0.46240726     0.11900
H471        H  0.38255387  0.83420640  0.46535558     0.11900
H472        H  0.33475524  0.89262278  0.05741805     0.11900
C473        C  0.37938098  0.62956374  0.46291142    -0.14200
C474        C  0.36390411  0.65203722  0.49125890     0.07900
C475        C  0.37975060  0.64791054  0.02065882    -0.14200
C476        C  0.40938196  0.61977385  0.02220959    -0.14200
C477        C  0.42395432  0.59597897  0.49418067     0.07900
C478        C  0.40921745  0.60210755  0.46427116    -0.14200
H479        H  0.36787278  0.63239641  0.43983464     0.11900
H480        H  0.36825169  0.66481129  0.04289322     0.11900
H481        H  0.42030938  0.61582824  0.04555578     0.11900
H482        H  0.41981996  0.58429940  0.44223818     0.11900
C483        C  0.08411952  0.61718218  0.01808561    -0.14200
C484        C  0.08089314  0.58921987  0.49198473     0.07900
C485        C  0.10875848  0.58888313  0.46400219    -0.14200
C486        C  0.13991059  0.61471777  0.46272945    -0.14200
C487        C  0.14329791  0.64224797  0.48893991     0.07900
C488        C  0.11492453  0.64400428  0.51634157    -0.14200
H489        H  0.06298906  0.61799120  0.03994468     0.11900
H490        H  0.10706011  0.56742150  0.44366775     0.11900
H491        H  0.16150192  0.61307241  0.44131682     0.11900
H492        H  0.11717414  0.66487979  0.03690255     0.11900
O493        O  0.03268295  0.54592678  0.52413911    -0.75300
O494        O  0.45641938  0.95962406  0.53221876    -0.75300
O495        O  0.02942402  0.95601676  0.53055787    -0.75400
O496        O  0.46020972  0.54934352  0.52543937    -0.75400
O497        O  0.46856518  0.54597617  0.96945310    -0.75400
O498        O  0.03796705  0.95348719  0.97451063    -0.75400
O499        O  0.46541253  0.95613576  0.97619758    -0.75300
O500        O  0.04135872  0.54309689  0.96807467    -0.75400
Ni501      Ni  0.49440000  0.00274300  0.53010385     1.25400
Ni502      Ni  0.00359655  0.49963357  0.97007187     1.25400
C503        C  0.04989813  0.55830264  0.99482364     0.86900
C504        C  0.44799586  0.94414699  0.00554209     0.86800
C505        C  0.04561300  0.93994432  0.50333333     0.86800
C506        C  0.45259123  0.56255306  0.49649220     0.87000
O507        O  0.45913850  0.95830869  0.78199440    -0.75900
O508        O  0.03317644  0.54842330  0.77163443    -0.75300
O509        O  0.46068565  0.54802865  0.77318963    -0.75400
O510        O  0.03206595  0.95841244  0.78055705    -0.75400
O511        O  0.04011207  0.95239583  0.72482001    -0.75400
O512        O  0.46927111  0.54301107  0.71734317    -0.75400
O513        O  0.04232303  0.54223647  0.71587779    -0.75300
O514        O  0.46765145  0.95313560  0.72616693    -0.75400
Ni515      Ni  0.49598270  0.00342053  0.77882869     1.25400
Ni516      Ni  0.00514768  0.49760658  0.71905038     1.25400
C517        C  0.45084110  0.94129483  0.75577908     0.86900
C518        C  0.05031945  0.55966700  0.74203432     0.86800
C519        C  0.45282978  0.55987425  0.74410842     0.86800
C520        C  0.04805234  0.94083628  0.75394173     0.87000
O521        O  0.18836572  0.83566867  0.52915844    -0.81800
O522        O  0.32109180  0.70712392  0.51053997    -0.66500
O523        O  0.25015725  0.79385992  0.99480595    -1.13100
C524        C  0.17710387  0.66730552  0.98816968     1.05100
O525        O  0.30956434  0.66580146  0.96986905    -0.79700
O526        O  0.25894740  0.69239405  0.93339044    -0.67300
Ni527      Ni  0.24024042  0.84134445  0.52463906     1.34900
C528        C  0.24301455  0.72753576  0.92511919     0.83800
O529        O  0.32306816  0.79566479  0.50126124    -0.80200
O530        O  0.29106463  0.85333057  0.52296196    -0.90500
C531        C  0.32967063  0.67632918  0.99075409     0.83400
O532        O  0.23775629  0.80644380  0.56604737    -0.68700
O533        O  0.20677039  0.64732868  0.97879898    -0.88000
C534        C  0.25549230  0.77255389  0.57369848     0.84200
C535        C  0.32092756  0.83467097  0.51194098     1.05800
H536        H  0.24105797  0.69605181  0.52700956     0.37600
O537        O  0.24821965  0.70874287  0.50418806    -1.10600
O538        O  0.22379869  0.75116594  0.94628187    -0.67300
Ni539      Ni  0.21240564  0.75124977  0.99506938     1.26300
O540        O  0.27606269  0.75103585  0.55209212    -0.67500
O541        O  0.17524334  0.70735592  0.99670981    -0.79800
C542        C  0.16885048  0.82605333  0.50754426     0.83600
O543        O  0.17787964  0.79590819  0.98723979    -0.67000
Ni544      Ni  0.25762699  0.65975892  0.97566890     1.27400
Ni545      Ni  0.28617049  0.75142759  0.50328718     1.26100
H546        H  0.25718994  0.80737981  0.97222303     0.38200
O547        O  0.19207445  0.83682152  0.78037815    -0.81800
O548        O  0.32035050  0.70168715  0.76073287    -0.66500
O549        O  0.25287038  0.79309120  0.74602396    -1.13100
C550        C  0.17706355  0.67042472  0.73427078     1.05100
O551        O  0.30948932  0.66599536  0.71702243    -0.79700
O552        O  0.25913286  0.69540648  0.68101269    -0.67300
Ni553      Ni  0.24410841  0.83983208  0.77659711     1.34900
C554        C  0.24457646  0.73194669  0.67367331     0.83800
O555        O  0.32560102  0.79029240  0.75423335    -0.80200
O556        O  0.29525795  0.84934723  0.77551491    -0.90500
C557        C  0.32897274  0.67283192  0.73929517     0.83400
O558        O  0.24023067  0.80357439  0.81755644    -0.68700
O559        O  0.20649269  0.64968244  0.72532114    -0.88000
C560        C  0.25584770  0.76776817  0.82484006     0.84200
C561        C  0.32459212  0.82932444  0.76484115     1.05800
H562        H  0.24039473  0.69408860  0.77492031     0.37600
O563        O  0.24841555  0.70795640  0.75259213    -1.10600
O564        O  0.22631944  0.75552502  0.69545959    -0.67300
Ni565      Ni  0.21402145  0.75254931  0.74421900     1.26300
O566        O  0.27555834  0.74555091  0.80302940    -0.67500
O567        O  0.17586742  0.71034805  0.74331562    -0.79800
C568        C  0.17213518  0.82833918  0.75876645     0.83600
O569        O  0.18077248  0.79907235  0.73761918    -0.67000
Ni570      Ni  0.25748234  0.66073487  0.72249310     1.27400
Ni571      Ni  0.28727947  0.74834708  0.75413190     1.26100
H572        H  0.26087710  0.80724767  0.72379657     0.38200
C573        C  0.24708405  0.74111260  0.88971209    -0.14200
C574        C  0.25120253  0.75216988  0.85988924    -0.15700
C575        C  0.25220225  0.75815924  0.60884633    -0.14200
C576        C  0.24875587  0.74694779  0.63857906    -0.15700
C577        C  0.08858758  0.87985703  0.73057885    -0.14200
C578        C  0.07704002  0.90810002  0.75672543     0.07900
C579        C  0.09510901  0.90701929  0.78471617    -0.14200
C580        C  0.12533280  0.88006011  0.78574146    -0.14200
C581        C  0.13789973  0.85312582  0.75898975     0.07900
C582        C  0.11861278  0.85233213  0.73181789    -0.14200
H583        H  0.07487833  0.87974338  0.70884919     0.11900
H584        H  0.08681873  0.92841293  0.80523383     0.11900
H585        H  0.13937249  0.88115011  0.80719877     0.11900
H586        H  0.12750245  0.83172499  0.71094002     0.11900
C587        C  0.41688073  0.88099459  0.73347530    -0.14200
C588        C  0.42062807  0.90875518  0.75959287     0.07900
C589        C  0.39389716  0.90723653  0.78859692    -0.14200
C590        C  0.36311875  0.88034465  0.79067586    -0.14200
C591        C  0.35892708  0.85356458  0.76421213     0.07900
C592        C  0.38648396  0.85318212  0.73597135    -0.14200
H593        H  0.43712300  0.88137495  0.71086978     0.11900
H594        H  0.39600600  0.92826859  0.80909123     0.11900
H595        H  0.34222791  0.88101236  0.81274147     0.11900
H596        H  0.38368301  0.83298047  0.71516303     0.11900
C597        C  0.37968537  0.64448656  0.76818220    -0.14200
C598        C  0.36259504  0.64709836  0.73951767     0.07900
C599        C  0.37686768  0.62299609  0.71159815    -0.14200
C600        C  0.40712857  0.59603415  0.71259220    -0.14200
C601        C  0.42341946  0.59212885  0.74170587     0.07900
C602        C  0.40968499  0.61702609  0.76934836    -0.14200
H603        H  0.36919940  0.66256611  0.79010791     0.11900
H604        H  0.36432805  0.62445815  0.68910580     0.11900
H605        H  0.41700003  0.57709190  0.69097446     0.11900
H606        H  0.42174298  0.61470358  0.79211996     0.11900
C607        C  0.14167519  0.61319316  0.71108320    -0.14200
C608        C  0.14287505  0.64597305  0.73426981     0.07900
C609        C  0.11215627  0.65262331  0.75860480    -0.14200
C610        C  0.08152859  0.62516441  0.76083840    -0.14200
C611        C  0.08082558  0.59162647  0.73812011     0.07900
C612        C  0.11081431  0.58669098  0.71272319    -0.14200
H613        H  0.16491694  0.60756387  0.69195136     0.11900
H614        H  0.11244849  0.67762726  0.77679818     0.11900
H615        H  0.05861699  0.62968511  0.78056490     0.11900
H616        H  0.11102945  0.56095629  0.69502376     0.11900
C617        C  0.08765860  0.89718224  0.53543573    -0.14200
C618        C  0.07452451  0.90665539  0.50500798     0.07900
C619        C  0.09099622  0.88637485  0.47579730    -0.14200
C620        C  0.12069983  0.85824751  0.47685433    -0.14200
C621        C  0.13472699  0.85052248  0.50700209     0.07900
C622        C  0.11757413  0.86966614  0.53635783    -0.14200
H623        H  0.07563199  0.91226288  0.55834497     0.11900
H624        H  0.08150417  0.89307657  0.45193720     0.11900
H625        H  0.13364150  0.84414489  0.45382783     0.11900
H626        H  0.12777861  0.86405955  0.55997948     0.11900
C627        C  0.38811707  0.91552370  0.53555392    -0.14200
C628        C  0.41691990  0.91333702  0.50853467     0.07900
C629        C  0.41468115  0.88346805  0.98346413    -0.14200
C630        C  0.38393327  0.85658281  0.98519148    -0.14200
C631        C  0.35458736  0.86008631  0.51150959     0.07900
C632        C  0.35701770  0.88954852  0.53678627    -0.14200
H633        H  0.38909164  0.93849331  0.55508375     0.11900
H634        H  0.43658405  0.88118339  0.96240719     0.11900
H635        H  0.38255341  0.83420711  0.96535549     0.11900
H636        H  0.33475518  0.89262319  0.55741751     0.11900
C637        C  0.37938113  0.62956403  0.96291131    -0.14200
C638        C  0.36390425  0.65203756  0.99125877     0.07900
C639        C  0.37975059  0.64791038  0.52065887    -0.14200
C640        C  0.40938206  0.61977386  0.52220956    -0.14200
C641        C  0.42395424  0.59597896  0.99418070     0.07900
C642        C  0.40921749  0.60210767  0.96427113    -0.14200
H643        H  0.36787302  0.63239681  0.93983449     0.11900
H644        H  0.36825169  0.66481112  0.54289329     0.11900
H645        H  0.42030956  0.61582835  0.54555572     0.11900
H646        H  0.41982001  0.58429953  0.94223816     0.11900
C647        C  0.08411887  0.61718348  0.51808542    -0.14200
C648        C  0.08089352  0.58921925  0.99198457     0.07900
C649        C  0.10875862  0.58888318  0.96400177    -0.14200
C650        C  0.13991073  0.61471784  0.96272909    -0.14200
C651        C  0.14329825  0.64224739  0.98893991     0.07900
C652        C  0.11492514  0.64400298  0.01634184    -0.14200
H653        H  0.06298819  0.61799301  0.53994428     0.11900
H654        H  0.10706005  0.56742208  0.94366705     0.11900
H655        H  0.16150187  0.61307305  0.94131625     0.11900
H656        H  0.11717334  0.66488163  0.53690201     0.11900
O657        O  0.53268320  0.04592648  0.02413892    -0.75300
O658        O  0.95641943  0.45962394  0.03221875    -0.75300
O659        O  0.52942410  0.45601686  0.03055788    -0.75400
O660        O  0.96020958  0.04934350  0.02543935    -0.75400
O661        O  0.96856513  0.04597603  0.46945299    -0.75400
O662        O  0.53796690  0.45348694  0.47451064    -0.75400
O663        O  0.96541261  0.45613595  0.47619739    -0.75300
O664        O  0.54135855  0.04309728  0.46807497    -0.75400
Ni665      Ni  0.99440015  0.50274279  0.03010369     1.25400
Ni666      Ni  0.50359652  0.99963386  0.47007202     1.25400
C667        C  0.54989789  0.05830307  0.49482396     0.86900
C668        C  0.94799593  0.44414706  0.50554186     0.86800
C669        C  0.54561308  0.43994447  0.00333332     0.86800
C670        C  0.95259113  0.06255301  0.99649216     0.87000
O671        O  0.95913826  0.45830849  0.28199424    -0.75900
O672        O  0.53317652  0.04842276  0.27163461    -0.75300
O673        O  0.96068546  0.04802862  0.27318973    -0.75400
O674        O  0.53206609  0.45841283  0.28055707    -0.75400
O675        O  0.54011207  0.45239608  0.22482006    -0.75400
O676        O  0.96927085  0.04301085  0.21734330    -0.75400
O677        O  0.54232323  0.04223607  0.21587794    -0.75300
O678        O  0.96765131  0.45313573  0.22616674    -0.75400
Ni679      Ni  0.99598260  0.50342012  0.27882875     1.25400
Ni680      Ni  0.50514780  0.99760640  0.21905036     1.25400
C681        C  0.95084087  0.44129484  0.25577882     0.86900
C682        C  0.55031959  0.05966652  0.24203453     0.86800
C683        C  0.95282943  0.05987397  0.24410854     0.86800
C684        C  0.54805241  0.44083657  0.25394176     0.87000
O685        O  0.68836570  0.33566899  0.02915812    -0.81800
O686        O  0.82109195  0.20712415  0.01053947    -0.66500
O687        O  0.75015737  0.29385999  0.49480592    -1.13100
C688        C  0.67710368  0.16730593  0.48816959     1.05100
O689        O  0.80956414  0.16580136  0.46986907    -0.79700
O690        O  0.75894726  0.19239399  0.43339035    -0.67300
Ni691      Ni  0.74024039  0.34134432  0.02463899     1.34900
C692        C  0.74301470  0.22753590  0.42511902     0.83800
O693        O  0.82306811  0.29566494  0.00126069    -0.80200
O694        O  0.79106460  0.35333019  0.02296225    -0.90500
C695        C  0.82967044  0.17632895  0.49075415     0.83400
O696        O  0.73775588  0.30644322  0.06604710    -0.68700
O697        O  0.70677014  0.14732888  0.47879903    -0.88000
C698        C  0.75549216  0.27255352  0.07369814     0.84200
C699        C  0.82092753  0.33467084  0.01194090     1.05800
H700        H  0.74105825  0.19605165  0.02700929     0.37600
O701        O  0.74821977  0.20874279  0.00418779    -1.10600
O702        O  0.72379897  0.25116627  0.44628166    -0.67300
Ni703      Ni  0.71240570  0.25125005  0.49506916     1.26300
O704        O  0.77606288  0.25103589  0.05209174    -0.67500
O705        O  0.67524327  0.20735642  0.49670947    -0.79800
C706        C  0.66885031  0.32605316  0.00754419     0.83600
O707        O  0.67787992  0.29590866  0.48723947    -0.67000
Ni708      Ni  0.75762678  0.15975897  0.47566889     1.27400
Ni709      Ni  0.78617051  0.25142766  0.00328678     1.26100
H710        H  0.75719019  0.30737990  0.47222301     0.38200
O711        O  0.69207414  0.33682076  0.28037818    -0.81800
O712        O  0.82035027  0.20168701  0.26073258    -0.66500
O713        O  0.75287023  0.29309112  0.24602366    -1.13100
C714        C  0.67706344  0.17042448  0.23427073     1.05100
O715        O  0.80948915  0.16599567  0.21702194    -0.79700
O716        O  0.75913220  0.19540586  0.18101240    -0.67300
Ni717      Ni  0.74410814  0.33983202  0.27659675     1.34900
C718        C  0.74457614  0.23194627  0.17367296     0.83800
O719        O  0.82560080  0.29029236  0.25423318    -0.80200
O720        O  0.79525770  0.34934763  0.27551407    -0.90500
C721        C  0.82897244  0.17283179  0.23929486     0.83400
O722        O  0.74023100  0.30357468  0.31755623    -0.68700
O723        O  0.70649256  0.14968197  0.22532144    -0.88000
C724        C  0.75584783  0.26776830  0.32483983     0.84200
C725        C  0.82459186  0.32932463  0.26484059     1.05800
H726        H  0.74039447  0.19408864  0.27492002     0.37600
O727        O  0.74841536  0.20795638  0.25259182    -1.10600
O728        O  0.72631948  0.25552498  0.19545919    -0.67300
Ni729      Ni  0.71402132  0.25254929  0.24421858     1.26300
O730        O  0.77555812  0.24555076  0.30302912    -0.67500
O731        O  0.67586731  0.21034805  0.24331507    -0.79800
C732        C  0.67213499  0.32833889  0.25876626     0.83600
O733        O  0.68077241  0.29907241  0.23761874    -0.67000
Ni734      Ni  0.75748218  0.16073470  0.22249296     1.27400
Ni735      Ni  0.78727928  0.24834701  0.25413163     1.26100
H736        H  0.76087699  0.30724760  0.22379628     0.38200
C737        C  0.74708435  0.24111276  0.38971189    -0.14200
C738        C  0.75120280  0.25217009  0.35988904    -0.15700
C739        C  0.75220205  0.25815866  0.10884595    -0.14200
C740        C  0.74875559  0.24694721  0.13857868    -0.15700
C741        C  0.58858777  0.37985762  0.23057856    -0.14200
C742        C  0.57703999  0.40810014  0.25672542     0.07900
C743        C  0.59510865  0.40701868  0.28471640    -0.14200
C744        C  0.62533237  0.38005933  0.28574164    -0.14200
C745        C  0.63789955  0.35312560  0.25898964     0.07900
C746        C  0.61861288  0.35233259  0.23181754    -0.14200
H747        H  0.57487877  0.37974448  0.20884872     0.11900
H748        H  0.58681817  0.42841188  0.30523429     0.11900
H749        H  0.63937182  0.38114877  0.30719915     0.11900
H750        H  0.62750274  0.33172588  0.21093944     0.11900
C751        C  0.91687999  0.38099571  0.23347434    -0.14200
C752        C  0.92062781  0.40875526  0.25959242     0.07900
C753        C  0.89389735  0.40723562  0.28859683    -0.14200
C754        C  0.86311891  0.38034380  0.29067568    -0.14200
C755        C  0.85892680  0.35356477  0.26421149     0.07900
C756        C  0.88648322  0.35318330  0.23597028    -0.14200
H757        H  0.93712189  0.38137684  0.21086852     0.11900
H758        H  0.89600655  0.42826684  0.30909155     0.11900
H759        H  0.84222840  0.38101071  0.31274162     0.11900
H760        H  0.88368187  0.33298246  0.21516161     0.11900
C761        C  0.87968445  0.14448559  0.26818232    -0.14200
C762        C  0.86259451  0.14709782  0.23951757     0.07900
C763        C  0.87686735  0.12299571  0.21159802    -0.14200
C764        C  0.90712822  0.09603373  0.21259218    -0.14200
C765        C  0.92341887  0.09212824  0.24170600     0.07900
C766        C  0.90968404  0.11702510  0.26934860    -0.14200
H767        H  0.86919827  0.16256491  0.29010809     0.11900
H768        H  0.86432796  0.12445804  0.18910552     0.11900
H769        H  0.91699991  0.07709172  0.19097437     0.11900
H770        H  0.92174177  0.11470237  0.29212034     0.11900
C771        C  0.64167509  0.11319299  0.21108322    -0.14200
C772        C  0.64287497  0.14597279  0.23426988     0.07900
C773        C  0.61215630  0.15262287  0.25860503    -0.14200
C774        C  0.58152869  0.12516386  0.26083872    -0.14200
C775        C  0.58082567  0.09162600  0.23812036     0.07900
C776        C  0.61081428  0.08669071  0.21272331    -0.14200
H777        H  0.66491677  0.10756385  0.19195127     0.11900
H778        H  0.61244858  0.17762677  0.27679845     0.11900
H779        H  0.55861715  0.12968441  0.28056532     0.11900
H780        H  0.61102939  0.06095610  0.19502381     0.11900
C781        C  0.58765843  0.39718195  0.03543574    -0.14200
C782        C  0.57452452  0.40665544  0.00500793     0.07900
C783        C  0.59099628  0.38637504  0.97579720    -0.14200
C784        C  0.62069979  0.35824754  0.97685423    -0.14200
C785        C  0.63472678  0.35052220  0.00700203     0.07900
C786        C  0.61757385  0.36966567  0.03635783    -0.14200
H787        H  0.57563177  0.41226244  0.05834501     0.11900
H788        H  0.58150436  0.39307703  0.95193707     0.11900
H789        H  0.63364153  0.34414508  0.95382769     0.11900
H790        H  0.62777823  0.36405884  0.05997951     0.11900
C791        C  0.88811744  0.41552262  0.03555445    -0.14200
C792        C  0.91691989  0.41333679  0.00853475     0.07900
C793        C  0.91468131  0.38346787  0.48346402    -0.14200
C794        C  0.88393341  0.35658265  0.48519139    -0.14200
C795        C  0.85458734  0.36008611  0.01150961     0.07900
C796        C  0.85701804  0.38954745  0.03678677    -0.14200
H797        H  0.88909229  0.43849158  0.05508466     0.11900
H798        H  0.93658436  0.38118290  0.46240725     0.11900
H799        H  0.88255367  0.33420664  0.46535558     0.11900
H800        H  0.83475579  0.39262146  0.05741836     0.11900
C801        C  0.87938068  0.12956337  0.46291142    -0.14200
C802        C  0.86390402  0.15203721  0.49125880     0.07900
C803        C  0.87975052  0.14791045  0.02065858    -0.14200
C804        C  0.90938191  0.11977382  0.02220940    -0.14200
C805        C  0.92395418  0.09597883  0.49418060     0.07900
C806        C  0.90921712  0.10210713  0.46427118    -0.14200
H807        H  0.86787238  0.13239586  0.43983471     0.11900
H808        H  0.86825158  0.16481123  0.04289296     0.11900
H809        H  0.92030931  0.11582830  0.04555560     0.11900
H810        H  0.91981948  0.08429876  0.44223827     0.11900
C811        C  0.58411944  0.11718239  0.01808550    -0.14200
C812        C  0.58089325  0.08921971  0.49198485     0.07900
C813        C  0.60875842  0.08888329  0.46400215    -0.14200
C814        C  0.63991053  0.11471797  0.46272934    -0.14200
C815        C  0.64329800  0.14224789  0.48893994     0.07900
C816        C  0.61492481  0.14400386  0.51634179    -0.14200
H817        H  0.56298901  0.11799143  0.03994459     0.11900
H818        H  0.60705992  0.06742190  0.44366759     0.11900
H819        H  0.66150172  0.11307287  0.44131658     0.11900
H820        H  0.61717410  0.16488002  0.03690237     0.11900
O821        O  0.53268304  0.04592662  0.52413923    -0.75300
O822        O  0.95641930  0.45962423  0.53221867    -0.75300
O823        O  0.52942388  0.45601668  0.53055816    -0.75400
O824        O  0.96020979  0.04934356  0.52543923    -0.75400
O825        O  0.96856518  0.04597605  0.96945310    -0.75400
O826        O  0.53796712  0.45348729  0.97451035    -0.75400
O827        O  0.96541259  0.45613569  0.97619748    -0.75300
O828        O  0.54135865  0.04309693  0.96807468    -0.75400
Ni829      Ni  0.99439994  0.50274316  0.53010374     1.25400
Ni830      Ni  0.50359649  0.99963362  0.97007193     1.25400
C831        C  0.54989805  0.05830279  0.99482362     0.86900
C832        C  0.94799599  0.44414675  0.00554198     0.86800
C833        C  0.54561284  0.43994420  0.50333364     0.86800
C834        C  0.95259118  0.06255301  0.49649209     0.87000
O835        O  0.95913859  0.45830858  0.78199453    -0.75900
O836        O  0.53317637  0.04842336  0.77163440    -0.75300
O837        O  0.96068555  0.04802860  0.77318970    -0.75400
O838        O  0.53206596  0.45841236  0.78055687    -0.75400
O839        O  0.54011213  0.45239592  0.72481982    -0.75400
O840        O  0.96927101  0.04301086  0.71734326    -0.75400
O841        O  0.54232302  0.04223652  0.71587776    -0.75300
O842        O  0.96765146  0.45313555  0.72616705    -0.75400
Ni843      Ni  0.99598278  0.50342045  0.77882877     1.25400
Ni844      Ni  0.50514768  0.99760663  0.71905031     1.25400
C845        C  0.95084118  0.44129470  0.75577921     0.86900
C846        C  0.55031940  0.05966707  0.74203431     0.86800
C847        C  0.95282967  0.05987409  0.74410848     0.86800
C848        C  0.54805237  0.44083627  0.75394154     0.87000
O849        O  0.68836553  0.33566854  0.52915862    -0.81800
O850        O  0.82109185  0.20712416  0.51053982    -0.66500
O851        O  0.75015735  0.29385981  0.99480570    -1.13100
C852        C  0.67710380  0.16730559  0.98816946     1.05100
O853        O  0.80956426  0.16580118  0.96986882    -0.79700
O854        O  0.75894736  0.19239393  0.93339020    -0.67300
Ni855      Ni  0.74024022  0.34134453  0.52463913     1.34900
C856        C  0.74301457  0.22753569  0.92511894     0.83800
O857        O  0.82306804  0.29566509  0.50126122    -0.80200
O858        O  0.79106442  0.35333082  0.52296195    -0.90500
C859        C  0.82967058  0.17632894  0.99075382     0.83400
O860        O  0.73775624  0.30644381  0.56604738    -0.68700
O861        O  0.70677028  0.14732868  0.97879874    -0.88000
C862        C  0.75549228  0.27255390  0.57369842     0.84200
C863        C  0.82092738  0.33467128  0.51194095     1.05800
H864        H  0.74105804  0.19605190  0.52700944     0.37600
O865        O  0.74821967  0.20874301  0.50418795    -1.10600
O866        O  0.72379874  0.25116589  0.94628162    -0.67300
Ni867      Ni  0.71240569  0.25124974  0.99506913     1.26300
O868        O  0.77606267  0.25103593  0.55209203    -0.67500
O869        O  0.67524333  0.20735598  0.99670958    -0.79800
C870        C  0.66885030  0.32605324  0.50754443     0.83600
O871        O  0.67787977  0.29590821  0.98723951    -0.67000
Ni872      Ni  0.75762690  0.15975879  0.97566866     1.27400
Ni873      Ni  0.78617046  0.25142780  0.50328709     1.26100
H874        H  0.75719005  0.30737971  0.97222279     0.38200
O875        O  0.69207460  0.33682181  0.78037785    -0.81800
O876        O  0.82035051  0.20168710  0.76073266    -0.66500
O877        O  0.75287048  0.29309125  0.74602374    -1.13100
C878        C  0.67706345  0.17042489  0.73427070     1.05100
O879        O  0.80948922  0.16599515  0.71702233    -0.79700
O880        O  0.75913282  0.19540642  0.68101258    -0.67300
Ni881      Ni  0.74410857  0.33983214  0.77659688     1.34900
C882        C  0.74457645  0.23194663  0.67367319     0.83800
O883        O  0.82560113  0.29029233  0.75423309    -0.80200
O884        O  0.79525813  0.34934713  0.77551477    -0.90500
C885        C  0.82897268  0.17283178  0.73929503     0.83400
O886        O  0.74023071  0.30357441  0.81755620    -0.68700
O887        O  0.70649257  0.14968255  0.72532104    -0.88000
C888        C  0.75584776  0.26776821  0.82483983     0.84200
C889        C  0.82459228  0.32932431  0.76484099     1.05800
H890        H  0.74039473  0.19408869  0.77492018     0.37600
O891        O  0.74841554  0.20795645  0.75259199    -1.10600
O892        O  0.72631944  0.25552500  0.69545945    -0.67300
Ni893      Ni  0.71402149  0.25254940  0.74421884     1.26300
O894        O  0.77555843  0.24555097  0.80302918    -0.67500
O895        O  0.67586738  0.21034821  0.74331554    -0.79800
C896        C  0.67213528  0.32833932  0.75876622     0.83600
O897        O  0.68077257  0.29907246  0.73761899    -0.67000
Ni898      Ni  0.75748223  0.16073484  0.72249301     1.27400
Ni899      Ni  0.78727952  0.24834708  0.75413168     1.26100
H900        H  0.76087719  0.30724770  0.72379633     0.38200
C901        C  0.74708410  0.24111257  0.88971185    -0.14200
C902        C  0.75120258  0.25216990  0.85988901    -0.15700
C903        C  0.75220225  0.25815917  0.60884624    -0.14200
C904        C  0.74875586  0.24694770  0.63857896    -0.15700
C905        C  0.58858778  0.37985725  0.73057851    -0.14200
C906        C  0.57704003  0.40809997  0.75672523     0.07900
C907        C  0.59510881  0.40701894  0.78471612    -0.14200
C908        C  0.62533263  0.38005980  0.78574140    -0.14200
C909        C  0.63789978  0.35312584  0.75898954     0.07900
C910        C  0.61861299  0.35233239  0.73181755    -0.14200
H911        H  0.57487869  0.37974381  0.70884874     0.11900
H912        H  0.58681837  0.42841234  0.80523389     0.11900
H913        H  0.63937217  0.38114958  0.80719882     0.11900
H914        H  0.62750283  0.33172549  0.71093957     0.11900
C915        C  0.91688087  0.38099454  0.73347530    -0.14200
C916        C  0.92062824  0.40875494  0.75959299     0.07900
C917        C  0.89389740  0.40723601  0.78859710    -0.14200
C918        C  0.86311899  0.38034414  0.79067595    -0.14200
C919        C  0.85892726  0.35356435  0.76421208     0.07900
C920        C  0.88648412  0.35318208  0.73597126    -0.14200
H921        H  0.93712310  0.38137509  0.71086974     0.11900
H922        H  0.89600626  0.42826789  0.80909151     0.11900
H923        H  0.84222818  0.38101166  0.81274160     0.11900
H924        H  0.88368313  0.33298063  0.71516284     0.11900
C925        C  0.87968553  0.14448685  0.76818193    -0.14200
C926        C  0.86259495  0.14709818  0.73951755     0.07900
C927        C  0.87686733  0.12299540  0.71159822    -0.14200
C928        C  0.90712820  0.09603345  0.71259232    -0.14200
C929        C  0.92341935  0.09212864  0.74170586     0.07900
C930        C  0.90968514  0.11702637  0.76934814    -0.14200
H931        H  0.86919978  0.16256679  0.79010749     0.11900
H932        H  0.86432749  0.12445707  0.68910600     0.11900
H933        H  0.91699945  0.07709081  0.69097475     0.11900
H934        H  0.92174334  0.11470424  0.79211962     0.11900
C935        C  0.64167499  0.11319354  0.71108302    -0.14200
C936        C  0.64287493  0.14597327  0.73426974     0.07900
C937        C  0.61215623  0.15262334  0.75860488    -0.14200
C938        C  0.58152857  0.12516439  0.76083850    -0.14200
C939        C  0.58082550  0.09162659  0.73812010     0.07900
C940        C  0.61081413  0.08669132  0.71272305    -0.14200
H941        H  0.66491667  0.10756440  0.69195107     0.11900
H942        H  0.61244852  0.17762717  0.77679835     0.11900
H943        H  0.55861704  0.12968493  0.78056511     0.11900
H944        H  0.61102922  0.06095674  0.69502353     0.11900
C945        C  0.58765819  0.39718168  0.53543609    -0.14200
C946        C  0.57452430  0.40665521  0.50500828     0.07900
C947        C  0.59099620  0.38637502  0.47579750    -0.14200
C948        C  0.62069981  0.35824770  0.47685450    -0.14200
C949        C  0.63472678  0.35052231  0.50700231     0.07900
C950        C  0.61757372  0.36966558  0.53635815    -0.14200
H951        H  0.57563142  0.41226203  0.55834540     0.11900
H952        H  0.58150431  0.39307704  0.45193736     0.11900
H953        H  0.63364164  0.34414539  0.45382792     0.11900
H954        H  0.62777808  0.36405870  0.55997985     0.11900
C955        C  0.88811688  0.41552414  0.53555379    -0.14200
C956        C  0.91691974  0.41333729  0.50853458     0.07900
C957        C  0.91468113  0.38346817  0.98346372    -0.14200
C958        C  0.88393326  0.35658293  0.98519102    -0.14200
C959        C  0.85458714  0.36008671  0.51150953     0.07900
C960        C  0.85701747  0.38954901  0.53678614    -0.14200
H961        H  0.88909146  0.43849380  0.55508358     0.11900
H962        H  0.93658386  0.38118391  0.96240657     0.11900
H963        H  0.88255324  0.33420764  0.96535481     0.11900
H964        H  0.83475494  0.39262377  0.55741735     0.11900
C965        C  0.87938109  0.12956378  0.96291110    -0.14200
C966        C  0.86390419  0.15203734  0.99125853     0.07900
C967        C  0.87975063  0.14791052  0.52065871    -0.14200
C968        C  0.90938208  0.11977394  0.52220942    -0.14200
C969        C  0.92395422  0.09597889  0.99418055     0.07900
C970        C  0.90921748  0.10210749  0.96427097    -0.14200
H971        H  0.86787299  0.13239648  0.93983427     0.11900
H972        H  0.86825189  0.16481149  0.54289306     0.11900
H973        H  0.92030972  0.11582862  0.54555551     0.11900
H974        H  0.91982004  0.08429930  0.94223802     0.11900
C975        C  0.58411917  0.11718302  0.51808569    -0.14200
C976        C  0.58089341  0.08921942  0.99198449     0.07900
C977        C  0.60875846  0.08888333  0.96400166    -0.14200
C978        C  0.63991058  0.11471799  0.96272892    -0.14200
C979        C  0.64329815  0.14224754  0.98893972     0.07900
C980        C  0.61492507  0.14400319  0.01634168    -0.14200
H981        H  0.56298864  0.11799230  0.53994469     0.11900
H982        H  0.60705987  0.06742221  0.94366696     0.11900
H983        H  0.66150169  0.11307317  0.94131606     0.11900
H984        H  0.61717376  0.16488097  0.53690233     0.11900
O985        O  0.53268310  0.54592665  0.02413906    -0.75300
O986        O  0.95641931  0.95962413  0.03221876    -0.75300
O987        O  0.52942392  0.95601675  0.03055808    -0.75400
O988        O  0.96020983  0.54934333  0.02543931    -0.75400
O989        O  0.96856513  0.54597622  0.46945303    -0.75400
O990        O  0.53796706  0.95348728  0.47451052    -0.75400
O991        O  0.96541255  0.95613578  0.47619748    -0.75300
O992        O  0.54135864  0.54309692  0.46807482    -0.75400
Ni993      Ni  0.99439995  0.00274305  0.03010385     1.25400
Ni994      Ni  0.50359646  0.49963364  0.47007204     1.25400
C995        C  0.54989802  0.55830275  0.49482377     0.86900
C996        C  0.94799590  0.94414699  0.50554199     0.86800
C997        C  0.54561291  0.93994424  0.00333358     0.86800
C998        C  0.95259128  0.56255289  0.99649217     0.87000
O999        O  0.95913861  0.95830849  0.28199445    -0.75900
O1000       O  0.53317638  0.54842326  0.27163442    -0.75300
O1001       O  0.96068557  0.54802866  0.27318968    -0.75400
O1002       O  0.53206606  0.95841233  0.28055701    -0.75400
O1003       O  0.54011214  0.95239576  0.22481997    -0.75400
O1004       O  0.96927105  0.54301098  0.21734323    -0.75400
O1005       O  0.54232296  0.54223638  0.21587778    -0.75300
O1006       O  0.96765150  0.95313559  0.22616696    -0.75400
Ni1007     Ni  0.99598276  0.00342039  0.27882877     1.25400
Ni1008     Ni  0.50514760  0.49760648  0.21905040     1.25400
C1009       C  0.95084120  0.94129468  0.25577910     0.86900
C1010       C  0.55031938  0.55966694  0.24203431     0.86800
C1011       C  0.95282972  0.55987420  0.24410845     0.86800
C1012       C  0.54805242  0.94083616  0.25394169     0.87000
O1013       O  0.68836574  0.83566868  0.02915859    -0.81800
O1014       O  0.82109186  0.70712390  0.01053993    -0.66500
O1015       O  0.75015724  0.79385999  0.49480586    -1.13100
C1016       C  0.67710379  0.66730558  0.48816974     1.05100
O1017       O  0.80956426  0.66580146  0.46986902    -0.79700
O1018       O  0.75894724  0.69239389  0.43339043    -0.67300
Ni1019     Ni  0.74024044  0.84134443  0.02463914     1.34900
C1020       C  0.74301452  0.72753568  0.42511913     0.83800
O1021       O  0.82306818  0.79566477  0.00126126    -0.80200
O1022       O  0.79106465  0.85333054  0.02296199    -0.90500
C1023       C  0.82967059  0.67632925  0.49075400     0.83400
O1024       O  0.73775636  0.80644371  0.06604741    -0.68700
O1025       O  0.70677029  0.64732865  0.47879914    -0.88000
C1026       C  0.75549235  0.77255377  0.07369848     0.84200
C1027       C  0.82092758  0.83467094  0.01194100     1.05800
H1028       H  0.74105807  0.69605172  0.02700953     0.37600
O1029       O  0.74821970  0.70874286  0.00418804    -1.10600
O1030       O  0.72379874  0.75116598  0.44628178    -0.67300
Ni1031     Ni  0.71240563  0.75124986  0.49506929     1.26300
O1032       O  0.77606273  0.75103575  0.05209210    -0.67500
O1033       O  0.67524330  0.70735604  0.49670973    -0.79800
C1034       C  0.66885044  0.82605330  0.00754448     0.83600
O1035       O  0.67787967  0.79590826  0.48723963    -0.67000
Ni1036     Ni  0.75762690  0.65975891  0.47566895     1.27400
Ni1037     Ni  0.78617053  0.75142757  0.00328717     1.26100
H1038       H  0.75718993  0.80737989  0.47222294     0.38200
O1039       O  0.69207458  0.83682153  0.28037796    -0.81800
O1040       O  0.82035052  0.70168701  0.26073278    -0.66500
O1041       O  0.75287047  0.79309107  0.24602385    -1.13100
C1042       C  0.67706354  0.67042456  0.23427081     1.05100
O1043       O  0.80948930  0.66599522  0.21702236    -0.79700
O1044       O  0.75913277  0.69540616  0.18101266    -0.67300
Ni1045     Ni  0.74410855  0.83983198  0.27659697     1.34900
C1046       C  0.74457646  0.73194641  0.17367327     0.83800
O1047       O  0.82560112  0.79029222  0.25423316    -0.80200
O1048       O  0.79525812  0.84934704  0.27551481    -0.90500
C1049       C  0.82897273  0.67283178  0.23929509     0.83400
O1050       O  0.74023073  0.80357429  0.31755632    -0.68700
O1051       O  0.70649267  0.64968221  0.22532125    -0.88000
C1052       C  0.75584778  0.76776809  0.32483997     0.84200
C1053       C  0.82459227  0.82932423  0.26484100     1.05800
H1054       H  0.74039476  0.69408853  0.27492028     0.37600
O1055       O  0.74841558  0.70795628  0.25259209    -1.10600
O1056       O  0.72631951  0.75552483  0.19545952    -0.67300
Ni1057     Ni  0.71402151  0.75254919  0.24421892     1.26300
O1058       O  0.77555845  0.74555084  0.30302930    -0.67500
O1059       O  0.67586744  0.71034794  0.24331556    -0.79800
C1060       C  0.67213527  0.82833907  0.25876631     0.83600
O1061       O  0.68077256  0.79907223  0.23761906    -0.67000
Ni1062     Ni  0.75748232  0.66073468  0.22249312     1.27400
Ni1063     Ni  0.78727953  0.74834694  0.25413179     1.26100
H1064       H  0.76087718  0.80724752  0.22379645     0.38200
C1065       C  0.74708408  0.74111250  0.38971201    -0.14200
C1066       C  0.75120260  0.75216980  0.35988915    -0.15700
C1067       C  0.75220228  0.75815901  0.10884630    -0.14200
C1068       C  0.74875588  0.74694749  0.13857902    -0.15700
C1069       C  0.58858773  0.87985701  0.23057869    -0.14200
C1070       C  0.57704004  0.90809981  0.25672538     0.07900
C1071       C  0.59510887  0.90701879  0.28471623    -0.14200
C1072       C  0.62533267  0.88005960  0.28574150    -0.14200
C1073       C  0.63789976  0.85312560  0.25898966     0.07900
C1074       C  0.61861292  0.85233212  0.23181771    -0.14200
H1075       H  0.57487859  0.87974356  0.20884894     0.11900
H1076       H  0.58681848  0.92841222  0.30523400     0.11900
H1077       H  0.63937224  0.88114939  0.30719890     0.11900
H1078       H  0.62750271  0.83172517  0.21093974     0.11900
C1079       C  0.91688065  0.88099489  0.23347499    -0.14200
C1080       C  0.92062823  0.90875493  0.25959283     0.07900
C1081       C  0.89389759  0.90723567  0.28859710    -0.14200
C1082       C  0.86311917  0.88034378  0.29067599    -0.14200
C1083       C  0.85892725  0.85356432  0.26421198     0.07900
C1084       C  0.88648389  0.85318242  0.23597097    -0.14200
H1085       H  0.93712271  0.88137571  0.21086929     0.11900
H1086       H  0.89600661  0.92826726  0.30909163     0.11900
H1087       H  0.84222852  0.88101103  0.31274178     0.11900
H1088       H  0.88368274  0.83298124  0.21516245     0.11900
C1089       C  0.87968547  0.64448671  0.26818203    -0.14200
C1090       C  0.86259501  0.64709823  0.23951759     0.07900
C1091       C  0.87686752  0.62299570  0.21159817    -0.14200
C1092       C  0.90712840  0.59603378  0.21259224    -0.14200
C1093       C  0.92341942  0.59212877  0.24170584     0.07900
C1094       C  0.90968509  0.61702626  0.26934822    -0.14200
H1095       H  0.86919961  0.66256646  0.29010767     0.11900
H1096       H  0.86432777  0.62445754  0.18910589     0.11900
H1097       H  0.91699975  0.57709131  0.19097460     0.11900
H1098       H  0.92174319  0.61470397  0.29211976     0.11900
C1099       C  0.64167516  0.61319302  0.21108323    -0.14200
C1100       C  0.64287503  0.64597292  0.23426984     0.07900
C1101       C  0.61215623  0.65262322  0.25860480    -0.14200
C1102       C  0.58152853  0.62516436  0.26083838    -0.14200
C1103       C  0.58082552  0.59162641  0.23812009     0.07900
C1104       C  0.61081426  0.58669089  0.21272320    -0.14200
H1105       H  0.66491692  0.60756370  0.19195141     0.11900
H1106       H  0.61244845  0.67762718  0.27679818     0.11900
H1107       H  0.55861692  0.62968508  0.28056486     0.11900
H1108       H  0.61102940  0.56095619  0.19502377     0.11900
C1109       C  0.58765863  0.89718237  0.03543599    -0.14200
C1110       C  0.57452440  0.90665530  0.00500827     0.07900
C1111       C  0.59099598  0.88637455  0.97579764    -0.14200
C1112       C  0.62069961  0.85824724  0.97685467    -0.14200
C1113       C  0.63472691  0.85052243  0.00700236     0.07900
C1114       C  0.61757418  0.86966628  0.03635807    -0.14200
H1115       H  0.57563213  0.91226317  0.05834518     0.11900
H1116       H  0.58150381  0.89307610  0.95193758     0.11900
H1117       H  0.63364117  0.84414447  0.95382819     0.11900
H1118       H  0.62777878  0.86405987  0.05997968     0.11900
C1119       C  0.88811705  0.91552372  0.03555394    -0.14200
C1120       C  0.91691988  0.91333701  0.00853469     0.07900
C1121       C  0.91468112  0.88346814  0.48346400    -0.14200
C1122       C  0.88393322  0.85658293  0.48519134    -0.14200
C1123       C  0.85458737  0.86008628  0.01150963     0.07900
C1124       C  0.85701769  0.88954852  0.03678629    -0.14200
H1125       H  0.88909160  0.93849336  0.05508375     0.11900
H1126       H  0.93658400  0.88118351  0.46240703     0.11900
H1127       H  0.88255334  0.83420728  0.46535533     0.11900
H1128       H  0.83475516  0.89262320  0.05741752     0.11900
C1129       C  0.87938110  0.62956415  0.46291117    -0.14200
C1130       C  0.86390423  0.65203768  0.49125864     0.07900
C1131       C  0.87975057  0.64791016  0.02065890    -0.14200
C1132       C  0.90938204  0.61977361  0.02220960    -0.14200
C1133       C  0.92395424  0.59597913  0.49418055     0.07900
C1134       C  0.90921747  0.60210781  0.46427099    -0.14200
H1135       H  0.86787297  0.63239690  0.43983437     0.11900
H1136       H  0.86825167  0.66481087  0.04289333     0.11900
H1137       H  0.92030952  0.61582806  0.04555576     0.11900
H1138       H  0.91981998  0.58429964  0.44223802     0.11900
C1139       C  0.58411907  0.61718319  0.01808551    -0.14200
C1140       C  0.58089340  0.58921937  0.49198467     0.07900
C1141       C  0.60875862  0.58888299  0.46400200    -0.14200
C1142       C  0.63991074  0.61471764  0.46272931    -0.14200
C1143       C  0.64329815  0.64224748  0.48893998     0.07900
C1144       C  0.61492490  0.64400341  0.51634177    -0.14200
H1145       H  0.56298850  0.61799249  0.03994447     0.11900
H1146       H  0.60706015  0.56742165  0.44366741     0.11900
H1147       H  0.66150197  0.61307260  0.44131658     0.11900
H1148       H  0.61717360  0.66488116  0.03690221     0.11900
O1149       O  0.53268315  0.54592643  0.52413907    -0.75300
O1150       O  0.95641936  0.95962421  0.53221875    -0.75300
O1151       O  0.52942398  0.95601682  0.53055806    -0.75400
O1152       O  0.96020955  0.54934359  0.52543929    -0.75400
O1153       O  0.96856525  0.54597596  0.96945306    -0.75400
O1154       O  0.53796697  0.95348693  0.97451056    -0.75400
O1155       O  0.96541267  0.95613579  0.97619749    -0.75300
O1156       O  0.54135859  0.54309731  0.96807480    -0.75400
Ni1157     Ni  0.99440012  0.00274303  0.53010362     1.25400
Ni1158     Ni  0.50359655  0.49963388  0.97007188     1.25400
C1159       C  0.54989792  0.55830313  0.99482378     0.86900
C1160       C  0.94799599  0.94414690  0.00554196     0.86800
C1161       C  0.54561297  0.93994443  0.50333350     0.86800
C1162       C  0.95259110  0.56255317  0.49649211     0.87000
O1163       O  0.95913839  0.95830841  0.78199432    -0.75900
O1164       O  0.53317651  0.54842279  0.77163455    -0.75300
O1165       O  0.96068548  0.54802870  0.77318973    -0.75400
O1166       O  0.53206610  0.95841296  0.78055701    -0.75400
O1167       O  0.54011215  0.95239623  0.72481999    -0.75400
O1168       O  0.96927075  0.54301079  0.71734332    -0.75400
O1169       O  0.54232325  0.54223624  0.71587787    -0.75300
O1170       O  0.96765138  0.95313560  0.72616683    -0.75400
Ni1171     Ni  0.99598266  0.00342013  0.77882877     1.25400
Ni1172     Ni  0.50514781  0.49760658  0.71905021     1.25400
C1173       C  0.95084100  0.94129469  0.75577893     0.86900
C1174       C  0.55031959  0.55966662  0.74203450     0.86800
C1175       C  0.95282937  0.55987395  0.74410855     0.86800
C1176       C  0.54805248  0.94083676  0.75394170     0.87000
O1177       O  0.68836554  0.83566911  0.52915823    -0.81800
O1178       O  0.82109196  0.70712445  0.51053965    -0.66500
O1179       O  0.75015749  0.79385984  0.99480596    -1.13100
C1180       C  0.67710366  0.66730599  0.98816960     1.05100
O1181       O  0.80956415  0.66580096  0.96986926    -0.79700
O1182       O  0.75894745  0.69239403  0.93339044    -0.67300
Ni1183     Ni  0.74024021  0.84134450  0.52463914     1.34900
C1184       C  0.74301476  0.72753585  0.92511913     0.83800
O1185       O  0.82306799  0.79566527  0.50126083    -0.80200
O1186       O  0.79106441  0.85333043  0.52296244    -0.90500
C1187       C  0.82967048  0.67632869  0.99075427     0.83400
O1188       O  0.73775568  0.80644339  0.56604725    -0.68700
O1189       O  0.70677011  0.64732898  0.97879893    -0.88000
C1190       C  0.75549205  0.77255378  0.57369830     0.84200
C1191       C  0.82092736  0.83467117  0.51194105     1.05800
H1192       H  0.74105823  0.69605190  0.52700949     0.37600
O1193       O  0.74821975  0.70874298  0.50418799    -1.10600
O1194       O  0.72379892  0.75116611  0.94628177    -0.67300
Ni1195     Ni  0.71240575  0.75124996  0.99506928     1.26300
O1196       O  0.77606284  0.75103621  0.55209192    -0.67500
O1197       O  0.67524327  0.70735640  0.99670968    -0.79800
C1198       C  0.66885017  0.82605319  0.50754432     0.83600
O1199       O  0.67787998  0.79590861  0.98723959    -0.67000
Ni1200     Ni  0.75762676  0.65975885  0.97566894     1.27400
Ni1201     Ni  0.78617045  0.75142792  0.50328696     1.26100
H1202       H  0.75719030  0.80737970  0.97222304     0.38200
O1203       O  0.69207433  0.83682128  0.78037824    -0.81800
O1204       O  0.82035023  0.70168701  0.76073262    -0.66500
O1205       O  0.75287028  0.79309128  0.74602382    -1.13100
C1206       C  0.67706332  0.67042480  0.73427084     1.05100
O1207       O  0.80948902  0.66599569  0.71702200    -0.79700
O1208       O  0.75913213  0.69540615  0.68101251    -0.67300
Ni1209     Ni  0.74410832  0.83983214  0.77659697     1.34900
C1210       C  0.74457606  0.73194657  0.67367311     0.83800
O1211       O  0.82560088  0.79029233  0.75423320    -0.80200
O1212       O  0.79525789  0.84934744  0.77551447    -0.90500
C1213       C  0.82897233  0.67283176  0.73929491     0.83400
O1214       O  0.74023093  0.80357461  0.81755637    -0.68700
O1215       O  0.70649242  0.64968230  0.72532147    -0.88000
C1216       C  0.75584783  0.76776828  0.82483995     0.84200
C1217       C  0.82459202  0.82932447  0.76484081     1.05800
H1218       H  0.74039445  0.69408878  0.77492012     0.37600
O1219       O  0.74841531  0.70795653  0.75259194    -1.10600
O1220       O  0.72631940  0.75552524  0.69545937    -0.67300
Ni1221     Ni  0.71402131  0.75254951  0.74421877     1.26300
O1222       O  0.77555821  0.74555084  0.80302922    -0.67500
O1223       O  0.67586723  0.71034832  0.74331529    -0.79800
C1224       C  0.67213514  0.82833932  0.75876639     0.83600
O1225       O  0.68077245  0.79907268  0.73761897    -0.67000
Ni1226     Ni  0.75748204  0.66073488  0.72249302     1.27400
Ni1227     Ni  0.78727929  0.74834708  0.75413172     1.26100
H1228       H  0.76087703  0.80724778  0.72379644     0.38200
C1229       C  0.74708437  0.74111271  0.88971200    -0.14200
C1230       C  0.75120280  0.75217002  0.85988915    -0.15700
C1231       C  0.75220195  0.75815897  0.60884612    -0.14200
C1232       C  0.74875549  0.74694755  0.63857885    -0.15700
C1233       C  0.58858781  0.87985772  0.73057869    -0.14200
C1234       C  0.57704015  0.90810049  0.75672539     0.07900
C1235       C  0.59510899  0.90701947  0.78471623    -0.14200
C1236       C  0.62533274  0.88006019  0.78574151    -0.14200
C1237       C  0.63789976  0.85312611  0.75898969     0.07900
C1238       C  0.61861296  0.85233275  0.73181771    -0.14200
H1239       H  0.57487868  0.87974429  0.70884894     0.11900
H1240       H  0.58681862  0.92841292  0.80523399     0.11900
H1241       H  0.63937232  0.88114993  0.80719892     0.11900
H1242       H  0.62750270  0.83172579  0.71093974     0.11900
C1243       C  0.91688006  0.88099564  0.73347442    -0.14200
C1244       C  0.92062799  0.90875503  0.75959257     0.07900
C1245       C  0.89389768  0.90723516  0.78859710    -0.14200
C1246       C  0.86311924  0.88034333  0.79067599    -0.14200
C1247       C  0.85892699  0.85356452  0.76421170     0.07900
C1248       C  0.88648329  0.85318323  0.73597039    -0.14200
H1249       H  0.93712185  0.88137694  0.71086851     0.11900
H1250       H  0.89600697  0.92826623  0.80909188     0.11900
H1251       H  0.84222883  0.88101009  0.81274200     0.11900
H1252       H  0.88368184  0.83298256  0.71516165     0.11900
C1253       C  0.87968452  0.64448578  0.76818223    -0.14200
C1254       C  0.86259436  0.64709770  0.73951760     0.07900
C1255       C  0.87686698  0.62299523  0.71159818    -0.14200
C1256       C  0.90712785  0.59603327  0.71259233    -0.14200
C1257       C  0.92341875  0.59212814  0.74170601     0.07900
C1258       C  0.90968411  0.61702531  0.76934849    -0.14200
H1259       H  0.86919852  0.66256537  0.79010791     0.11900
H1260       H  0.86432741  0.62445728  0.68910579     0.11900
H1261       H  0.91699937  0.57709099  0.69097462     0.11900
H1262       H  0.92174203  0.61470285  0.79212013     0.11900
C1263       C  0.64167493  0.61319355  0.71108311    -0.14200
C1264       C  0.64287485  0.64597311  0.73426995     0.07900
C1265       C  0.61215627  0.65262288  0.75860528    -0.14200
C1266       C  0.58152870  0.62516378  0.76083893    -0.14200
C1267       C  0.58082563  0.59162616  0.73812039     0.07900
C1268       C  0.61081416  0.58669119  0.71272318    -0.14200
H1269       H  0.66491655  0.60756466  0.69195103     0.11900
H1270       H  0.61244859  0.67762657  0.77679885     0.11900
H1271       H  0.55861724  0.62968409  0.78056566     0.11900
H1272       H  0.61102924  0.56095677  0.69502353     0.11900
C1273       C  0.58765816  0.89718168  0.53543595    -0.14200
C1274       C  0.57452435  0.90665535  0.50500812     0.07900
C1275       C  0.59099618  0.88637509  0.47579734    -0.14200
C1276       C  0.62069968  0.85824759  0.47685436    -0.14200
C1277       C  0.63472660  0.85052212  0.50700219     0.07900
C1278       C  0.61757357  0.86966541  0.53635803    -0.14200
H1279       H  0.57563142  0.91226206  0.55834526     0.11900
H1280       H  0.58150433  0.89307719  0.45193719     0.11900
H1281       H  0.63364150  0.84414526  0.45382779     0.11900
H1282       H  0.62777790  0.86405846  0.55997974     0.11900
C1283       C  0.88811707  0.91552353  0.53555425    -0.14200
C1284       C  0.91691973  0.91333716  0.50853479     0.07900
C1285       C  0.91468150  0.88346759  0.98346412    -0.14200
C1286       C  0.88393363  0.85658229  0.98519148    -0.14200
C1287       C  0.85458714  0.86008654  0.51150971     0.07900
C1288       C  0.85701767  0.88954838  0.53678660    -0.14200
H1289       H  0.88909181  0.93849285  0.55508424     0.11900
H1290       H  0.93658454  0.88118270  0.96240732     0.11900
H1291       H  0.88255391  0.83420632  0.96535565     0.11900
H1292       H  0.83475528  0.89262277  0.55741800     0.11900
C1293       C  0.87938100  0.62956361  0.96291143    -0.14200
C1294       C  0.86390412  0.65203709  0.99125891     0.07900
C1295       C  0.87975062  0.64791073  0.52065866    -0.14200
C1296       C  0.90938199  0.61977406  0.52220942    -0.14200
C1297       C  0.92395432  0.59597877  0.99418069     0.07900
C1298       C  0.90921747  0.60210740  0.96427117    -0.14200
H1299       H  0.86787283  0.63239633  0.93983464     0.11900
H1300       H  0.86825172  0.66481150  0.54289306     0.11900
H1301       H  0.92030943  0.61582848  0.54555561     0.11900
H1302       H  0.91981999  0.58429929  0.94223818     0.11900
C1303       C  0.58411927  0.61718261  0.51808555    -0.14200
C1304       C  0.58089323  0.58921984  0.99198468     0.07900
C1305       C  0.60875845  0.58888341  0.96400201    -0.14200
C1306       C  0.63991055  0.61471809  0.96272927    -0.14200
C1307       C  0.64329796  0.64224801  0.98893987     0.07900
C1308       C  0.61492470  0.64400403  0.01634166    -0.14200
H1309       H  0.56298870  0.61799187  0.53994452     0.11900
H1310       H  0.60706000  0.56742199  0.94366746     0.11900
H1311       H  0.66150178  0.61307297  0.94131654     0.11900
H1312       H  0.61717380  0.66488047  0.53690236     0.11900
loop_ 
_geom_bond_atom_site_label_1 
_geom_bond_atom_site_label_2 
_geom_bond_distance 
_geom_bond_site_symmetry_2 
_ccdc_geom_bond_type 
O1         Ni993   1.912   1_455  S
O1          C175   1.280   1_554  A
O2           Ni9   1.915       .  S
O2          C176   1.281       .  A
O3         Ni665   1.920   1_455  S
O3           C13   1.283       .  A
O4         Ni337   1.916       .  S
O4           C14   1.281   1_554  A
O5         Ni666   1.913   1_545  S
O5          C178   1.281       .  A
O6         Ni338   1.909       .  S
O6          C177   1.279       .  A
O7         Ni994   1.915       .  S
O7           C12   1.281       .  A
O8          Ni10   1.916   1_545  S
O8           C11   1.282       .  A
Ni9         O985   1.912       .  S
Ni9         O659   1.920       .  S
Ni9         O332   1.916       .  S
Ni9       Ni1158   2.389   1_554  S
Ni10        O661   1.913   1_465  S
Ni10        O334   1.909       .  S
Ni10        O991   1.915   1_455  S
Ni10      Ni1157   2.389   1_465  S
C11         O165   1.280       .  A
C11         C156   1.474       .  S
C12         O166   1.281       .  A
C12         C300   1.474       .  S
C13         O170   1.279   1_554  A
C13         C126   1.479       .  S
C14         O169   1.281       .  A
C14         C313   1.477       .  S
O15         Ni23   1.921       .  S
O15          C25   1.283       .  A
O16       Ni1007   1.919   1_455  S
O16          C26   1.281       .  A
O17        Ni351   1.909       .  S
O17          C27   1.280       .  A
O18        Ni679   1.915   1_455  S
O18          C28   1.282       .  A
O19        Ni352   1.914       .  S
O19          C28   1.281       .  A
O20        Ni680   1.918   1_545  S
O20          C27   1.282       .  A
O21         Ni24   1.919   1_545  S
O21          C26   1.282       .  A
O22       Ni1008   1.916       .  S
O22          C25   1.281       .  A
Ni23       O1000   1.919       .  S
Ni23        O345   1.909       .  S
Ni23        O674   1.915       .  S
Ni23      Ni1008   2.388       .  S
Ni24        O347   1.914       .  S
Ni24        O676   1.918   1_465  S
Ni24       O1006   1.916   1_455  S
Ni24      Ni1007   2.388   1_465  S
C25          C96   1.480       .  S
C26         C119   1.476       .  S
C27         C109   1.476       .  S
C28          C86   1.476       .  S
O29         Ni35   1.927       .  S
O29          C50   1.270       .  A
O30         Ni53   1.906       .  S
O30         C203   1.266   1_554  A
O31          H54   0.966       .  S
O31         Ni47   1.908       .  S
O31        Ni199   1.920       .  S
O31        Ni217   1.909       .  S
C32          O49   1.272       .  A
C32          O41   1.274       .  A
C32         C159   1.469       .  S
O33         Ni52   1.927       .  S
O33          C39   1.270       .  A
O34         Ni52   1.901       .  S
O34          C36   1.265       .  A
Ni35         O38   1.927       .  S
Ni35         O40   1.899       .  S
Ni35        O195   1.920   1_554  S
C36          O46   1.273       .  A
C36          C81   1.439       .  S
O37         Ni53   1.909       .  S
O37          C43   1.272       .  A
O38          C43   1.275       .  A
C39         O194   1.266       .  A
C39         C146   1.475       .  S
O40          C42   1.264       .  A
O41         Ni52   1.923       .  S
C42          O48   1.271       .  A
C42          C83   1.436       .  S
C43         C139   1.472       .  S
H44          O45   0.966       .  S
O45         Ni53   1.911       .  S
O45        Ni211   1.912   1_554  S
O45        Ni216   1.921   1_554  S
O46         Ni47   1.937       .  S
Ni47         O51   1.908       .  S
Ni47         O49   1.910       .  S
Ni47        O209   1.912       .  S
O48         Ni53   1.935       .  S
C50         O215   1.267   1_554  A
C50         C129   1.475       .  S
O51         C214   1.267       .  A
Ni52        O209   1.921       .  S
Ni53        O195   1.909   1_554  S
O55         Ni61   1.930       .  S
O55          C76   1.272       .  A
O56         Ni79   1.903       .  S
O56          C65   1.266       .  A
O57          H80   0.966       .  S
O57         Ni61   1.918       .  S
O57         Ni79   1.910       .  S
O57         Ni73   1.913       .  S
C58          O75   1.275       .  A
C58          O67   1.275       .  A
C58         C116   1.478       .  S
O59         Ni78   1.929       .  S
O59          C65   1.270       .  A
O60         Ni78   1.901       .  S
O60          C62   1.264       .  A
Ni61         O64   1.929       .  S
Ni61         O66   1.901       .  S
C62          O72   1.272       .  A
C62          C84   1.437       .  S
O63         Ni79   1.913       .  S
O63          C69   1.273       .  A
O64          C69   1.276       .  A
C65         C106   1.476       .  S
O66          C68   1.264       .  A
O67         Ni78   1.922       .  S
C68          O74   1.273       .  A
C68          C82   1.439       .  S
C69          C99   1.475       .  S
H70          O71   0.966       .  S
O71         Ni79   1.909       .  S
O71         Ni73   1.909       .  S
O71         Ni78   1.918       .  S
O72         Ni73   1.935       .  S
Ni73         O77   1.904       .  S
Ni73         O75   1.919       .  S
O74         Ni79   1.939       .  S
C76          O77   1.267       .  A
C76          C89   1.480       .  S
C81          C82   1.208       .  T
C83          C84   1.207       .  T
C85          C86   1.406       .  A
C85          C90   1.399       .  A
C85          H91   1.083       .  S
C86          C87   1.403       .  A
C87          C88   1.394       .  A
C87          H92   1.083       .  S
C88          C89   1.406       .  A
C88          H93   1.083       .  S
C89          C90   1.406       .  A
C90          H94   1.083       .  S
C95          C96   1.407       .  A
C95         C100   1.400       .  A
C95         H101   1.083       .  S
C96          C97   1.405       .  A
C97          C98   1.397       .  A
C97         H102   1.083       .  S
C98          C99   1.403       .  A
C98         H103   1.083       .  S
C99         C100   1.404       .  A
C100        H104   1.083       .  S
C105        C106   1.404       .  A
C105        C110   1.397       .  A
C105        H111   1.083       .  S
C106        C107   1.406       .  A
C107        C108   1.395       .  A
C107        H112   1.083       .  S
C108        C109   1.404       .  A
C108        H113   1.083       .  S
C109        C110   1.406       .  A
C110        H114   1.083       .  S
C115        C116   1.405       .  A
C115        C120   1.395       .  A
C115        H121   1.083       .  S
C116        C117   1.405       .  A
C117        C118   1.402       .  A
C117        H122   1.083       .  S
C118        C119   1.406       .  A
C118        H123   1.083       .  S
C119        C120   1.403       .  A
C120        H124   1.083       .  S
C125        C126   1.403       .  A
C125        C130   1.394       .  A
C125        H131   1.083       .  S
C126        C127   1.408   1_554  A
C127        C128   1.400       .  A
C127        H132   1.083       .  S
C128        C129   1.403   1_556  A
C128        H133   1.083       .  S
C129        C130   1.404       .  A
C130        H134   1.083       .  S
C135        C136   1.404       .  A
C135        C140   1.396       .  A
C135        H141   1.083       .  S
C136        C176   1.474       .  S
C136        C301   1.405   1_554  A
C137        C138   1.398       .  A
C137        C300   1.405       .  A
C137        H142   1.083       .  S
C138        C303   1.403       .  A
C138        H143   1.083       .  S
C139        C140   1.404       .  A
C139        C302   1.403   1_554  A
C140        H144   1.083       .  S
C145        C146   1.404       .  A
C145        C150   1.393       .  A
C145        H151   1.083       .  S
C146        C311   1.405       .  A
C147        C148   1.400       .  A
C147        C310   1.405   1_554  A
C147        H152   1.083       .  S
C148        C313   1.407   1_554  A
C148        H153   1.083       .  S
C149        C178   1.477       .  S
C149        C150   1.404       .  A
C149        C312   1.407       .  A
C150        H154   1.083       .  S
C155        C320   1.406   1_554  A
C155        C324   1.399       .  A
C155        H161   1.083       .  S
C156        C157   1.404       .  A
C156        C319   1.406       .  A
C157        C158   1.395       .  A
C157        H162   1.083       .  S
C158        C159   1.402       .  A
C158        H163   1.083       .  S
C159        C160   1.403       .  A
C160        C319   1.399       .  A
C160        H328   1.083       .  S
H164        C324   1.083       .  S
O165      Ni1157   1.912   1_455  S
O166       Ni173   1.915       .  S
O167       Ni829   1.920   1_455  S
O167        C177   1.283       .  A
O168       Ni501   1.916       .  S
O168        C178   1.281       .  A
O169       Ni830   1.913   1_545  S
O170       Ni502   1.909       .  S
O171      Ni1158   1.915       .  S
O171        C176   1.281   1_556  A
O172       Ni174   1.916   1_545  S
O172        C175   1.282       .  A
Ni173      O1149   1.912       .  S
Ni173       O823   1.920       .  S
Ni173       O496   1.916       .  S
Ni173      Ni994   2.389       .  S
Ni174       O825   1.913   1_465  S
Ni174       O498   1.909       .  S
Ni174      O1155   1.915   1_455  S
Ni174      Ni993   2.389   1_466  S
C175        C320   1.474       .  S
C177        C290   1.479       .  S
O179       Ni187   1.921       .  S
O179        C189   1.283       .  A
O180      Ni1171   1.919   1_455  S
O180        C190   1.281       .  A
O181       Ni515   1.909       .  S
O181        C191   1.280       .  A
O182       Ni843   1.915   1_455  S
O182        C192   1.282       .  A
O183       Ni516   1.914       .  S
O183        C192   1.281       .  A
O184       Ni844   1.918   1_545  S
O184        C191   1.282       .  A
O185       Ni188   1.919   1_545  S
O185        C190   1.282       .  A
O186      Ni1172   1.916       .  S
O186        C189   1.281       .  A
Ni187      O1164   1.919       .  S
Ni187       O509   1.909       .  S
Ni187       O838   1.915       .  S
Ni187     Ni1172   2.388       .  S
Ni188       O511   1.914       .  S
Ni188       O840   1.918   1_465  S
Ni188      O1170   1.916   1_455  S
Ni188     Ni1171   2.388   1_465  S
C189        C260   1.480       .  S
C190        C283   1.476       .  S
C191        C273   1.476       .  S
C192        C250   1.476       .  S
O193       Ni199   1.927       .  S
O193        C214   1.270       .  A
O194       Ni217   1.906       .  S
O195        H218   0.966       .  S
O195       Ni211   1.908       .  S
C196        O213   1.272       .  A
C196        O205   1.274       .  A
C196        C323   1.469       .  S
O197       Ni216   1.927       .  S
O197        C203   1.270       .  A
O198       Ni216   1.901       .  S
O198        C200   1.265       .  A
Ni199       O202   1.927       .  S
Ni199       O204   1.899       .  S
C200        O210   1.273       .  A
C200        C245   1.439       .  S
O201       Ni217   1.909       .  S
O201        C207   1.272       .  A
O202        C207   1.275       .  A
C203        C310   1.475       .  S
O204        C206   1.264       .  A
O205       Ni216   1.923       .  S
C206        O212   1.271       .  A
C206        C247   1.436       .  S
C207        C303   1.472       .  S
H208        O209   0.966       .  S
O209       Ni217   1.911       .  S
O210       Ni211   1.937       .  S
Ni211       O215   1.908       .  S
Ni211       O213   1.910       .  S
O212       Ni217   1.935       .  S
C214        C293   1.475       .  S
O219       Ni225   1.930       .  S
O219        C240   1.272       .  A
O220       Ni243   1.903       .  S
O220        C229   1.266       .  A
O221        H244   0.966       .  S
O221       Ni225   1.918       .  S
O221       Ni243   1.910       .  S
O221       Ni237   1.913       .  S
C222        O239   1.275       .  A
C222        O231   1.275       .  A
C222        C280   1.478       .  S
O223       Ni242   1.929       .  S
O223        C229   1.270       .  A
O224       Ni242   1.901       .  S
O224        C226   1.264       .  A
Ni225       O228   1.929       .  S
Ni225       O230   1.901       .  S
C226        O236   1.272       .  A
C226        C248   1.437       .  S
O227       Ni243   1.913       .  S
O227        C233   1.273       .  A
O228        C233   1.276       .  A
C229        C270   1.476       .  S
O230        C232   1.264       .  A
O231       Ni242   1.922       .  S
C232        O238   1.273       .  A
C232        C246   1.439       .  S
C233        C263   1.475       .  S
H234        O235   0.966       .  S
O235       Ni243   1.909       .  S
O235       Ni237   1.909       .  S
O235       Ni242   1.918       .  S
O236       Ni237   1.935       .  S
Ni237       O241   1.904       .  S
Ni237       O239   1.919       .  S
O238       Ni243   1.939       .  S
C240        O241   1.267       .  A
C240        C253   1.480       .  S
C245        C246   1.208       .  T
C247        C248   1.207       .  T
C249        C250   1.406       .  A
C249        C254   1.399       .  A
C249        H255   1.083       .  S
C250        C251   1.403       .  A
C251        C252   1.394       .  A
C251        H256   1.083       .  S
C252        C253   1.406       .  A
C252        H257   1.083       .  S
C253        C254   1.406       .  A
C254        H258   1.083       .  S
C259        C260   1.407       .  A
C259        C264   1.400       .  A
C259        H265   1.083       .  S
C260        C261   1.405       .  A
C261        C262   1.397       .  A
C261        H266   1.083       .  S
C262        C263   1.403       .  A
C262        H267   1.083       .  S
C263        C264   1.404       .  A
C264        H268   1.083       .  S
C269        C270   1.404       .  A
C269        C274   1.397       .  A
C269        H275   1.083       .  S
C270        C271   1.406       .  A
C271        C272   1.395       .  A
C271        H276   1.083       .  S
C272        C273   1.404       .  A
C272        H277   1.083       .  S
C273        C274   1.406       .  A
C274        H278   1.083       .  S
C279        C280   1.405       .  A
C279        C284   1.395       .  A
C279        H285   1.083       .  S
C280        C281   1.405       .  A
C281        C282   1.402       .  A
C281        H286   1.083       .  S
C282        C283   1.406       .  A
C282        H287   1.083       .  S
C283        C284   1.403       .  A
C284        H288   1.083       .  S
C289        C290   1.403       .  A
C289        C294   1.394       .  A
C289        H295   1.083       .  S
C290        C291   1.408       .  A
C291        C292   1.400       .  A
C291        H296   1.083       .  S
C292        C293   1.403       .  A
C292        H297   1.083       .  S
C293        C294   1.404       .  A
C294        H298   1.083       .  S
C299        C300   1.404       .  A
C299        C304   1.396       .  A
C299        H305   1.083       .  S
C301        C302   1.398       .  A
C301        H306   1.083       .  S
C302        H307   1.083       .  S
C303        C304   1.404       .  A
C304        H308   1.083       .  S
C309        C310   1.404       .  A
C309        C314   1.393       .  A
C309        H315   1.083       .  S
C311        C312   1.400       .  A
C311        H316   1.083       .  S
C312        H317   1.083       .  S
C313        C314   1.404       .  A
C314        H318   1.083       .  S
C319        H325   1.083       .  S
C320        C321   1.404       .  A
C321        C322   1.395       .  A
C321        H326   1.083       .  S
C322        C323   1.402       .  A
C322        H327   1.083       .  S
C323        C324   1.403   1_556  A
O329       Ni665   1.912   1_455  S
O329        C503   1.280   1_554  A
O330       Ni337   1.915   1_565  S
O330        C504   1.281       .  A
O331       Ni993   1.920   1_465  S
O331        C341   1.283       .  A
O332        C342   1.281   1_554  A
O333       Ni994   1.913       .  S
O333        C506   1.281       .  A
O334        C505   1.279       .  A
O335       Ni666   1.915       .  S
O335        C340   1.281       .  A
O336       Ni338   1.916       .  S
O336        C339   1.282       .  A
Ni337       O657   1.912       .  S
Ni337       O987   1.920   1_545  S
Ni337      Ni830   2.389   1_544  S
Ni338       O989   1.913   1_455  S
Ni338       O663   1.915   1_455  S
Ni338      Ni829   2.389   1_455  S
C339        O493   1.280       .  A
C339        C484   1.474       .  S
C340        O494   1.281       .  A
C340        C628   1.474       .  S
C341        O498   1.279   1_554  A
C341        C454   1.479       .  S
C342        O497   1.281       .  A
C342        C641   1.477       .  S
O343       Ni351   1.921   1_565  S
O343        C353   1.283       .  A
O344       Ni679   1.919   1_455  S
O344        C354   1.281       .  A
O345        C355   1.280       .  A
O346      Ni1007   1.915   1_465  S
O346        C356   1.282       .  A
O347        C356   1.281       .  A
O348      Ni1008   1.918       .  S
O348        C355   1.282       .  A
O349       Ni352   1.919       .  S
O349        C354   1.282       .  A
O350       Ni680   1.916       .  S
O350        C353   1.281       .  A
Ni351       O672   1.919       .  S
Ni351      O1002   1.915   1_545  S
Ni351      Ni680   2.388   1_545  S
Ni352      O1004   1.918   1_455  S
Ni352       O678   1.916   1_455  S
Ni352      Ni679   2.388   1_455  S
C353        C424   1.480       .  S
C354        C447   1.476       .  S
C355        C437   1.476       .  S
C356        C414   1.476       .  S
O357       Ni363   1.927       .  S
O357        C378   1.270       .  A
O358       Ni381   1.906       .  S
O358        C531   1.266   1_554  A
O359        H382   0.966       .  S
O359       Ni527   1.920       .  S
O359       Ni545   1.909       .  S
O359       Ni375   1.908       .  S
C360        O377   1.272       .  A
C360        O369   1.274       .  A
C360        C487   1.469       .  S
O361       Ni380   1.927       .  S
O361        C367   1.270       .  A
O362       Ni380   1.901       .  S
O362        C364   1.265       .  A
Ni363       O366   1.927       .  S
Ni363       O368   1.899       .  S
Ni363       O523   1.920   1_554  S
C364        O374   1.273       .  A
C364        C409   1.439       .  S
O365       Ni381   1.909       .  S
O365        C371   1.272       .  A
O366        C371   1.275       .  A
C367        O522   1.266       .  A
C367        C474   1.475       .  S
O368        C370   1.264       .  A
O369       Ni380   1.923       .  S
C370        O376   1.271       .  A
C370        C411   1.436       .  S
C371        C467   1.472       .  S
H372        O373   0.966       .  S
O373       Ni381   1.911       .  S
O373       Ni539   1.912   1_554  S
O373       Ni544   1.921   1_554  S
O374       Ni375   1.937       .  S
Ni375       O379   1.908       .  S
Ni375       O377   1.910       .  S
Ni375       O537   1.912       .  S
O376       Ni381   1.935       .  S
C378        O543   1.267   1_554  A
C378        C457   1.475       .  S
O379        C542   1.267       .  A
Ni380       O537   1.921       .  S
Ni381       O523   1.909   1_554  S
O383       Ni389   1.930       .  S
O383        C404   1.272       .  A
O384       Ni407   1.903       .  S
O384        C393   1.266       .  A
O385        H408   0.966       .  S
O385       Ni389   1.918       .  S
O385       Ni407   1.910       .  S
O385       Ni401   1.913       .  S
C386        O403   1.275       .  A
C386        O395   1.275       .  A
C386        C444   1.478       .  S
O387       Ni406   1.929       .  S
O387        C393   1.270       .  A
O388       Ni406   1.901       .  S
O388        C390   1.264       .  A
Ni389       O392   1.929       .  S
Ni389       O394   1.901       .  S
C390        O400   1.272       .  A
C390        C412   1.437       .  S
O391       Ni407   1.913       .  S
O391        C397   1.273       .  A
O392        C397   1.276       .  A
C393        C434   1.476       .  S
O394        C396   1.264       .  A
O395       Ni406   1.922       .  S
C396        O402   1.273       .  A
C396        C410   1.439       .  S
C397        C427   1.475       .  S
H398        O399   0.966       .  S
O399       Ni407   1.909       .  S
O399       Ni401   1.909       .  S
O399       Ni406   1.918       .  S
O400       Ni401   1.935       .  S
Ni401       O405   1.904       .  S
Ni401       O403   1.919       .  S
O402       Ni407   1.939       .  S
C404        O405   1.267       .  A
C404        C417   1.480       .  S
C409        C410   1.208       .  T
C411        C412   1.207       .  T
C413        C414   1.406       .  A
C413        C418   1.399       .  A
C413        H419   1.083       .  S
C414        C415   1.403       .  A
C415        C416   1.394       .  A
C415        H420   1.083       .  S
C416        C417   1.406       .  A
C416        H421   1.083       .  S
C417        C418   1.406       .  A
C418        H422   1.083       .  S
C423        C424   1.407       .  A
C423        C428   1.400       .  A
C423        H429   1.083       .  S
C424        C425   1.405       .  A
C425        C426   1.397       .  A
C425        H430   1.083       .  S
C426        C427   1.403       .  A
C426        H431   1.083       .  S
C427        C428   1.404       .  A
C428        H432   1.083       .  S
C433        C434   1.404       .  A
C433        C438   1.397       .  A
C433        H439   1.083       .  S
C434        C435   1.406       .  A
C435        C436   1.395       .  A
C435        H440   1.083       .  S
C436        C437   1.404       .  A
C436        H441   1.083       .  S
C437        C438   1.406       .  A
C438        H442   1.083       .  S
C443        C444   1.405       .  A
C443        C448   1.395       .  A
C443        H449   1.083       .  S
C444        C445   1.405       .  A
C445        C446   1.402       .  A
C445        H450   1.083       .  S
C446        C447   1.406       .  A
C446        H451   1.083       .  S
C447        C448   1.403       .  A
C448        H452   1.083       .  S
C453        C454   1.403       .  A
C453        C458   1.394       .  A
C453        H459   1.083       .  S
C454        C455   1.408   1_554  A
C455        C456   1.400       .  A
C455        H460   1.083       .  S
C456        C457   1.403   1_556  A
C456        H461   1.083       .  S
C457        C458   1.404       .  A
C458        H462   1.083       .  S
C463        C464   1.404       .  A
C463        C468   1.396       .  A
C463        H469   1.083       .  S
C464        C504   1.474       .  S
C464        C629   1.405   1_554  A
C465        C628   1.405       .  A
C465        C466   1.398       .  A
C465        H470   1.083       .  S
C466        C631   1.403       .  A
C466        H471   1.083       .  S
C467        C630   1.403   1_554  A
C467        C468   1.404       .  A
C468        H472   1.083       .  S
C473        C474   1.404       .  A
C473        C478   1.393       .  A
C473        H479   1.083       .  S
C474        C639   1.405       .  A
C475        C638   1.405   1_554  A
C475        C476   1.400       .  A
C475        H480   1.083       .  S
C476        C641   1.407   1_554  A
C476        H481   1.083       .  S
C477        C506   1.477       .  S
C477        C640   1.407       .  A
C477        C478   1.404       .  A
C478        H482   1.083       .  S
C483        C648   1.406   1_554  A
C483        C652   1.399       .  A
C483        H489   1.083       .  S
C484        C647   1.406       .  A
C484        C485   1.404       .  A
C485        C486   1.395       .  A
C485        H490   1.083       .  S
C486        C487   1.402       .  A
C486        H491   1.083       .  S
C487        C488   1.403       .  A
C488        C647   1.399       .  A
C488        H656   1.083       .  S
H492        C652   1.083       .  S
O493       Ni829   1.912   1_455  S
O494       Ni501   1.915   1_565  S
O495      Ni1157   1.920   1_465  S
O495        C505   1.283       .  A
O496        C506   1.281       .  A
O497      Ni1158   1.913       .  S
O499       Ni830   1.915       .  S
O499        C504   1.281   1_556  A
O500       Ni502   1.916       .  S
O500        C503   1.282       .  A
Ni501       O821   1.912       .  S
Ni501      O1151   1.920   1_545  S
Ni501      Ni666   2.389   1_545  S
Ni502      O1153   1.913   1_455  S
Ni502       O827   1.915   1_455  S
Ni502      Ni665   2.389   1_456  S
C503        C648   1.474       .  S
C505        C618   1.479       .  S
O507       Ni515   1.921   1_565  S
O507        C517   1.283       .  A
O508       Ni843   1.919   1_455  S
O508        C518   1.281       .  A
O509        C519   1.280       .  A
O510      Ni1171   1.915   1_465  S
O510        C520   1.282       .  A
O511        C520   1.281       .  A
O512      Ni1172   1.918       .  S
O512        C519   1.282       .  A
O513       Ni516   1.919       .  S
O513        C518   1.282       .  A
O514       Ni844   1.916       .  S
O514        C517   1.281       .  A
Ni515       O836   1.919       .  S
Ni515      O1166   1.915   1_545  S
Ni515      Ni844   2.388   1_545  S
Ni516      O1168   1.918   1_455  S
Ni516       O842   1.916   1_455  S
Ni516      Ni843   2.388   1_455  S
C517        C588   1.480       .  S
C518        C611   1.476       .  S
C519        C601   1.476       .  S
C520        C578   1.476       .  S
O521       Ni527   1.927       .  S
O521        C542   1.270       .  A
O522       Ni545   1.906       .  S
O523        H546   0.966       .  S
O523       Ni539   1.908       .  S
C524        O541   1.272       .  A
C524        O533   1.274       .  A
C524        C651   1.469       .  S
O525       Ni544   1.927       .  S
O525        C531   1.270       .  A
O526       Ni544   1.901       .  S
O526        C528   1.265       .  A
Ni527       O530   1.927       .  S
Ni527       O532   1.899       .  S
C528        O538   1.273       .  A
C528        C573   1.439       .  S
O529       Ni545   1.909       .  S
O529        C535   1.272       .  A
O530        C535   1.275       .  A
C531        C638   1.475       .  S
O532        C534   1.264       .  A
O533       Ni544   1.923       .  S
C534        O540   1.271       .  A
C534        C575   1.436       .  S
C535        C631   1.472       .  S
H536        O537   0.966       .  S
O537       Ni545   1.911       .  S
O538       Ni539   1.937       .  S
Ni539       O543   1.908       .  S
Ni539       O541   1.910       .  S
O540       Ni545   1.935       .  S
C542        C621   1.475       .  S
O547       Ni553   1.930       .  S
O547        C568   1.272       .  A
O548       Ni571   1.903       .  S
O548        C557   1.266       .  A
O549        H572   0.966       .  S
O549       Ni553   1.918       .  S
O549       Ni571   1.910       .  S
O549       Ni565   1.913       .  S
C550        O567   1.275       .  A
C550        O559   1.275       .  A
C550        C608   1.478       .  S
O551       Ni570   1.929       .  S
O551        C557   1.270       .  A
O552       Ni570   1.901       .  S
O552        C554   1.264       .  A
Ni553       O556   1.929       .  S
Ni553       O558   1.901       .  S
C554        O564   1.272       .  A
C554        C576   1.437       .  S
O555       Ni571   1.913       .  S
O555        C561   1.273       .  A
O556        C561   1.276       .  A
C557        C598   1.476       .  S
O558        C560   1.264       .  A
O559       Ni570   1.922       .  S
C560        O566   1.273       .  A
C560        C574   1.439       .  S
C561        C591   1.475       .  S
H562        O563   0.966       .  S
O563       Ni571   1.909       .  S
O563       Ni565   1.909       .  S
O563       Ni570   1.918       .  S
O564       Ni565   1.935       .  S
Ni565       O569   1.904       .  S
Ni565       O567   1.919       .  S
O566       Ni571   1.939       .  S
C568        O569   1.267       .  A
C568        C581   1.480       .  S
C573        C574   1.208       .  T
C575        C576   1.207       .  T
C577        C578   1.406       .  A
C577        C582   1.399       .  A
C577        H583   1.083       .  S
C578        C579   1.403       .  A
C579        C580   1.394       .  A
C579        H584   1.083       .  S
C580        C581   1.406       .  A
C580        H585   1.083       .  S
C581        C582   1.406       .  A
C582        H586   1.083       .  S
C587        C588   1.407       .  A
C587        C592   1.400       .  A
C587        H593   1.083       .  S
C588        C589   1.405       .  A
C589        C590   1.397       .  A
C589        H594   1.083       .  S
C590        C591   1.403       .  A
C590        H595   1.083       .  S
C591        C592   1.404       .  A
C592        H596   1.083       .  S
C597        C598   1.404       .  A
C597        C602   1.397       .  A
C597        H603   1.083       .  S
C598        C599   1.406       .  A
C599        C600   1.395       .  A
C599        H604   1.083       .  S
C600        C601   1.404       .  A
C600        H605   1.083       .  S
C601        C602   1.406       .  A
C602        H606   1.083       .  S
C607        C608   1.405       .  A
C607        C612   1.395       .  A
C607        H613   1.083       .  S
C608        C609   1.405       .  A
C609        C610   1.402       .  A
C609        H614   1.083       .  S
C610        C611   1.406       .  A
C610        H615   1.083       .  S
C611        C612   1.403       .  A
C612        H616   1.083       .  S
C617        C618   1.403       .  A
C617        C622   1.394       .  A
C617        H623   1.083       .  S
C618        C619   1.408       .  A
C619        C620   1.400       .  A
C619        H624   1.083       .  S
C620        C621   1.403       .  A
C620        H625   1.083       .  S
C621        C622   1.404       .  A
C622        H626   1.083       .  S
C627        C628   1.404       .  A
C627        C632   1.396       .  A
C627        H633   1.083       .  S
C629        C630   1.398       .  A
C629        H634   1.083       .  S
C630        H635   1.083       .  S
C631        C632   1.404       .  A
C632        H636   1.083       .  S
C637        C638   1.404       .  A
C637        C642   1.393       .  A
C637        H643   1.083       .  S
C639        C640   1.400       .  A
C639        H644   1.083       .  S
C640        H645   1.083       .  S
C641        C642   1.404       .  A
C642        H646   1.083       .  S
C647        H653   1.083       .  S
C648        C649   1.404       .  A
C649        C650   1.395       .  A
C649        H654   1.083       .  S
C650        C651   1.402       .  A
C650        H655   1.083       .  S
C651        C652   1.403   1_556  A
O657        C831   1.280   1_554  A
O658       Ni665   1.915       .  S
O658        C832   1.281       .  A
O659        C669   1.283       .  A
O660       Ni993   1.916       .  S
O660        C670   1.281   1_554  A
O661        C834   1.281       .  A
O662       Ni994   1.909       .  S
O662        C833   1.279       .  A
O663        C668   1.281       .  A
O664       Ni666   1.916   1_545  S
O664        C667   1.282       .  A
Ni665       O988   1.916       .  S
Ni666       O990   1.909       .  S
C667        O821   1.280       .  A
C667        C812   1.474       .  S
C668        O822   1.281       .  A
C668        C956   1.474       .  S
C669        O826   1.279   1_554  A
C669        C782   1.479       .  S
C670        O825   1.281       .  A
C670        C969   1.477       .  S
O671       Ni679   1.921       .  S
O671        C681   1.283       .  A
O672        C682   1.281       .  A
O673      Ni1007   1.909       .  S
O673        C683   1.280       .  A
O674        C684   1.282       .  A
O675      Ni1008   1.914       .  S
O675        C684   1.281       .  A
O676        C683   1.282       .  A
O677       Ni680   1.919   1_545  S
O677        C682   1.282       .  A
O678        C681   1.281       .  A
Ni679      O1001   1.909       .  S
Ni680      O1003   1.914       .  S
C681        C752   1.480       .  S
C682        C775   1.476       .  S
C683        C765   1.476       .  S
C684        C742   1.476       .  S
O685       Ni691   1.927       .  S
O685        C706   1.270       .  A
O686       Ni709   1.906       .  S
O686        C859   1.266   1_554  A
O687        H710   0.966       .  S
O687       Ni855   1.920       .  S
O687       Ni873   1.909       .  S
O687       Ni703   1.908       .  S
C688        O705   1.272       .  A
C688        O697   1.274       .  A
C688        C815   1.469       .  S
O689       Ni708   1.927       .  S
O689        C695   1.270       .  A
O690       Ni708   1.901       .  S
O690        C692   1.265       .  A
Ni691       O694   1.927       .  S
Ni691       O696   1.899       .  S
Ni691       O851   1.920   1_554  S
C692        O702   1.273       .  A
C692        C737   1.439       .  S
O693       Ni709   1.909       .  S
O693        C699   1.272       .  A
O694        C699   1.275       .  A
C695        O850   1.266       .  A
C695        C802   1.475       .  S
O696        C698   1.264       .  A
O697       Ni708   1.923       .  S
C698        O704   1.271       .  A
C698        C739   1.436       .  S
C699        C795   1.472       .  S
H700        O701   0.966       .  S
O701       Ni709   1.911       .  S
O701       Ni867   1.912   1_554  S
O701       Ni872   1.921   1_554  S
O702       Ni703   1.937       .  S
Ni703       O707   1.908       .  S
Ni703       O705   1.910       .  S
Ni703       O865   1.912       .  S
O704       Ni709   1.935       .  S
C706        O871   1.267   1_554  A
C706        C785   1.475       .  S
O707        C870   1.267       .  A
Ni708       O865   1.921       .  S
Ni709       O851   1.909   1_554  S
O711       Ni717   1.930       .  S
O711        C732   1.272       .  A
O712       Ni735   1.903       .  S
O712        C721   1.266       .  A
O713        H736   0.966       .  S
O713       Ni717   1.918       .  S
O713       Ni735   1.910       .  S
O713       Ni729   1.913       .  S
C714        O731   1.275       .  A
C714        O723   1.275       .  A
C714        C772   1.478       .  S
O715       Ni734   1.929       .  S
O715        C721   1.270       .  A
O716       Ni734   1.901       .  S
O716        C718   1.264       .  A
Ni717       O720   1.929       .  S
Ni717       O722   1.901       .  S
C718        O728   1.272       .  A
C718        C740   1.437       .  S
O719       Ni735   1.913       .  S
O719        C725   1.273       .  A
O720        C725   1.276       .  A
C721        C762   1.476       .  S
O722        C724   1.264       .  A
O723       Ni734   1.922       .  S
C724        O730   1.273       .  A
C724        C738   1.439       .  S
C725        C755   1.475       .  S
H726        O727   0.966       .  S
O727       Ni735   1.909       .  S
O727       Ni729   1.909       .  S
O727       Ni734   1.918       .  S
O728       Ni729   1.935       .  S
Ni729       O733   1.904       .  S
Ni729       O731   1.919       .  S
O730       Ni735   1.939       .  S
C732        O733   1.267       .  A
C732        C745   1.480       .  S
C737        C738   1.208       .  T
C739        C740   1.207       .  T
C741        C742   1.406       .  A
C741        C746   1.399       .  A
C741        H747   1.083       .  S
C742        C743   1.403       .  A
C743        C744   1.394       .  A
C743        H748   1.083       .  S
C744        C745   1.406       .  A
C744        H749   1.083       .  S
C745        C746   1.406       .  A
C746        H750   1.083       .  S
C751        C752   1.407       .  A
C751        C756   1.400       .  A
C751        H757   1.083       .  S
C752        C753   1.405       .  A
C753        C754   1.397       .  A
C753        H758   1.083       .  S
C754        C755   1.403       .  A
C754        H759   1.083       .  S
C755        C756   1.404       .  A
C756        H760   1.083       .  S
C761        C762   1.404       .  A
C761        C766   1.397       .  A
C761        H767   1.083       .  S
C762        C763   1.406       .  A
C763        C764   1.395       .  A
C763        H768   1.083       .  S
C764        C765   1.404       .  A
C764        H769   1.083       .  S
C765        C766   1.406       .  A
C766        H770   1.083       .  S
C771        C772   1.405       .  A
C771        C776   1.395       .  A
C771        H777   1.083       .  S
C772        C773   1.405       .  A
C773        C774   1.402       .  A
C773        H778   1.083       .  S
C774        C775   1.406       .  A
C774        H779   1.083       .  S
C775        C776   1.403       .  A
C776        H780   1.083       .  S
C781        C782   1.403       .  A
C781        C786   1.394       .  A
C781        H787   1.083       .  S
C782        C783   1.408   1_554  A
C783        C784   1.400       .  A
C783        H788   1.083       .  S
C784        C785   1.403   1_556  A
C784        H789   1.083       .  S
C785        C786   1.404       .  A
C786        H790   1.083       .  S
C791        C792   1.404       .  A
C791        C796   1.396       .  A
C791        H797   1.083       .  S
C792        C832   1.474       .  S
C792        C957   1.405   1_554  A
C793        C956   1.405       .  A
C793        C794   1.398       .  A
C793        H798   1.083       .  S
C794        C959   1.403       .  A
C794        H799   1.083       .  S
C795        C958   1.403   1_554  A
C795        C796   1.404       .  A
C796        H800   1.083       .  S
C801        C802   1.404       .  A
C801        C806   1.393       .  A
C801        H807   1.083       .  S
C802        C967   1.405       .  A
C803        C966   1.405   1_554  A
C803        C804   1.400       .  A
C803        H808   1.083       .  S
C804        C969   1.407   1_554  A
C804        H809   1.083       .  S
C805        C834   1.477       .  S
C805        C968   1.407       .  A
C805        C806   1.404       .  A
C806        H810   1.083       .  S
C811        C976   1.406   1_554  A
C811        C980   1.399       .  A
C811        H817   1.083       .  S
C812        C975   1.406       .  A
C812        C813   1.404       .  A
C813        C814   1.395       .  A
C813        H818   1.083       .  S
C814        C815   1.402       .  A
C814        H819   1.083       .  S
C815        C816   1.403       .  A
C816        C975   1.399       .  A
C816        H984   1.083       .  S
H820        C980   1.083       .  S
O822       Ni829   1.915       .  S
O823        C833   1.283       .  A
O824      Ni1157   1.916       .  S
O824        C834   1.281       .  A
O826      Ni1158   1.909       .  S
O827        C832   1.281   1_556  A
O828       Ni830   1.916   1_545  S
O828        C831   1.282       .  A
Ni829      O1152   1.916       .  S
Ni830      O1154   1.909       .  S
C831        C976   1.474       .  S
C833        C946   1.479       .  S
O835       Ni843   1.921       .  S
O835        C845   1.283       .  A
O836        C846   1.281       .  A
O837      Ni1171   1.909       .  S
O837        C847   1.280       .  A
O838        C848   1.282       .  A
O839      Ni1172   1.914       .  S
O839        C848   1.281       .  A
O840        C847   1.282       .  A
O841       Ni844   1.919   1_545  S
O841        C846   1.282       .  A
O842        C845   1.281       .  A
Ni843      O1165   1.909       .  S
Ni844      O1167   1.914       .  S
C845        C916   1.480       .  S
C846        C939   1.476       .  S
C847        C929   1.476       .  S
C848        C906   1.476       .  S
O849       Ni855   1.927       .  S
O849        C870   1.270       .  A
O850       Ni873   1.906       .  S
O851        H874   0.966       .  S
O851       Ni867   1.908       .  S
C852        O869   1.272       .  A
C852        O861   1.274       .  A
C852        C979   1.469       .  S
O853       Ni872   1.927       .  S
O853        C859   1.270       .  A
O854       Ni872   1.901       .  S
O854        C856   1.265       .  A
Ni855       O858   1.927       .  S
Ni855       O860   1.899       .  S
C856        O866   1.273       .  A
C856        C901   1.439       .  S
O857       Ni873   1.909       .  S
O857        C863   1.272       .  A
O858        C863   1.275       .  A
C859        C966   1.475       .  S
O860        C862   1.264       .  A
O861       Ni872   1.923       .  S
C862        O868   1.271       .  A
C862        C903   1.436       .  S
C863        C959   1.472       .  S
H864        O865   0.966       .  S
O865       Ni873   1.911       .  S
O866       Ni867   1.937       .  S
Ni867       O871   1.908       .  S
Ni867       O869   1.910       .  S
O868       Ni873   1.935       .  S
C870        C949   1.475       .  S
O875       Ni881   1.930       .  S
O875        C896   1.272       .  A
O876       Ni899   1.903       .  S
O876        C885   1.266       .  A
O877        H900   0.966       .  S
O877       Ni881   1.918       .  S
O877       Ni899   1.910       .  S
O877       Ni893   1.913       .  S
C878        O895   1.275       .  A
C878        O887   1.275       .  A
C878        C936   1.478       .  S
O879       Ni898   1.929       .  S
O879        C885   1.270       .  A
O880       Ni898   1.901       .  S
O880        C882   1.264       .  A
Ni881       O884   1.929       .  S
Ni881       O886   1.901       .  S
C882        O892   1.272       .  A
C882        C904   1.437       .  S
O883       Ni899   1.913       .  S
O883        C889   1.273       .  A
O884        C889   1.276       .  A
C885        C926   1.476       .  S
O886        C888   1.264       .  A
O887       Ni898   1.922       .  S
C888        O894   1.273       .  A
C888        C902   1.439       .  S
C889        C919   1.475       .  S
H890        O891   0.966       .  S
O891       Ni899   1.909       .  S
O891       Ni893   1.909       .  S
O891       Ni898   1.918       .  S
O892       Ni893   1.935       .  S
Ni893       O897   1.904       .  S
Ni893       O895   1.919       .  S
O894       Ni899   1.939       .  S
C896        O897   1.267       .  A
C896        C909   1.480       .  S
C901        C902   1.208       .  T
C903        C904   1.207       .  T
C905        C906   1.406       .  A
C905        C910   1.399       .  A
C905        H911   1.083       .  S
C906        C907   1.403       .  A
C907        C908   1.394       .  A
C907        H912   1.083       .  S
C908        C909   1.406       .  A
C908        H913   1.083       .  S
C909        C910   1.406       .  A
C910        H914   1.083       .  S
C915        C916   1.407       .  A
C915        C920   1.400       .  A
C915        H921   1.083       .  S
C916        C917   1.405       .  A
C917        C918   1.397       .  A
C917        H922   1.083       .  S
C918        C919   1.403       .  A
C918        H923   1.083       .  S
C919        C920   1.404       .  A
C920        H924   1.083       .  S
C925        C926   1.404       .  A
C925        C930   1.397       .  A
C925        H931   1.083       .  S
C926        C927   1.406       .  A
C927        C928   1.395       .  A
C927        H932   1.083       .  S
C928        C929   1.404       .  A
C928        H933   1.083       .  S
C929        C930   1.406       .  A
C930        H934   1.083       .  S
C935        C936   1.405       .  A
C935        C940   1.395       .  A
C935        H941   1.083       .  S
C936        C937   1.405       .  A
C937        C938   1.402       .  A
C937        H942   1.083       .  S
C938        C939   1.406       .  A
C938        H943   1.083       .  S
C939        C940   1.403       .  A
C940        H944   1.083       .  S
C945        C946   1.403       .  A
C945        C950   1.394       .  A
C945        H951   1.083       .  S
C946        C947   1.408       .  A
C947        C948   1.400       .  A
C947        H952   1.083       .  S
C948        C949   1.403       .  A
C948        H953   1.083       .  S
C949        C950   1.404       .  A
C950        H954   1.083       .  S
C955        C956   1.404       .  A
C955        C960   1.396       .  A
C955        H961   1.083       .  S
C957        C958   1.398       .  A
C957        H962   1.083       .  S
C958        H963   1.083       .  S
C959        C960   1.404       .  A
C960        H964   1.083       .  S
C965        C966   1.404       .  A
C965        C970   1.393       .  A
C965        H971   1.083       .  S
C967        C968   1.400       .  A
C967        H972   1.083       .  S
C968        H973   1.083       .  S
C969        C970   1.404       .  A
C970        H974   1.083       .  S
C975        H981   1.083       .  S
C976        C977   1.404       .  A
C977        C978   1.395       .  A
C977        H982   1.083       .  S
C978        C979   1.402       .  A
C978        H983   1.083       .  S
C979        C980   1.403   1_556  A
O985       C1159   1.280   1_554  A
O986       Ni993   1.915   1_565  S
O986       C1160   1.281       .  A
O987        C997   1.283       .  A
O988        C998   1.281   1_554  A
O989       C1162   1.281       .  A
O990       C1161   1.279       .  A
O991        C996   1.281       .  A
O992       Ni994   1.916       .  S
O992        C995   1.282       .  A
C995       O1149   1.280       .  A
C995       C1140   1.474       .  S
C996       O1150   1.281       .  A
C996       C1284   1.474       .  S
C997       O1154   1.279   1_554  A
C997       C1110   1.479       .  S
C998       O1153   1.281       .  A
C998       C1297   1.477       .  S
O999      Ni1007   1.921   1_565  S
O999       C1009   1.283       .  A
O1000      C1010   1.281       .  A
O1001      C1011   1.280       .  A
O1002      C1012   1.282       .  A
O1003      C1012   1.281       .  A
O1004      C1011   1.282       .  A
O1005     Ni1008   1.919       .  S
O1005      C1010   1.282       .  A
O1006      C1009   1.281       .  A
C1009      C1080   1.480       .  S
C1010      C1103   1.476       .  S
C1011      C1093   1.476       .  S
C1012      C1070   1.476       .  S
O1013     Ni1019   1.927       .  S
O1013      C1034   1.270       .  A
O1014     Ni1037   1.906       .  S
O1014      C1187   1.266   1_554  A
O1015      H1038   0.966       .  S
O1015     Ni1183   1.920       .  S
O1015     Ni1201   1.909       .  S
O1015     Ni1031   1.908       .  S
C1016      O1033   1.272       .  A
C1016      O1025   1.274       .  A
C1016      C1143   1.469       .  S
O1017     Ni1036   1.927       .  S
O1017      C1023   1.270       .  A
O1018     Ni1036   1.901       .  S
O1018      C1020   1.265       .  A
Ni1019     O1022   1.927       .  S
Ni1019     O1024   1.899       .  S
Ni1019     O1179   1.920   1_554  S
C1020      O1030   1.273       .  A
C1020      C1065   1.439       .  S
O1021     Ni1037   1.909       .  S
O1021      C1027   1.272       .  A
O1022      C1027   1.275       .  A
C1023      O1178   1.266       .  A
C1023      C1130   1.475       .  S
O1024      C1026   1.264       .  A
O1025     Ni1036   1.923       .  S
C1026      O1032   1.271       .  A
C1026      C1067   1.436       .  S
C1027      C1123   1.472       .  S
H1028      O1029   0.966       .  S
O1029     Ni1037   1.911       .  S
O1029     Ni1195   1.912   1_554  S
O1029     Ni1200   1.921   1_554  S
O1030     Ni1031   1.937       .  S
Ni1031     O1035   1.908       .  S
Ni1031     O1033   1.910       .  S
Ni1031     O1193   1.912       .  S
O1032     Ni1037   1.935       .  S
C1034      O1199   1.267   1_554  A
C1034      C1113   1.475       .  S
O1035      C1198   1.267       .  A
Ni1036     O1193   1.921       .  S
Ni1037     O1179   1.909   1_554  S
O1039     Ni1045   1.930       .  S
O1039      C1060   1.272       .  A
O1040     Ni1063   1.903       .  S
O1040      C1049   1.266       .  A
O1041      H1064   0.966       .  S
O1041     Ni1045   1.918       .  S
O1041     Ni1063   1.910       .  S
O1041     Ni1057   1.913       .  S
C1042      O1059   1.275       .  A
C1042      O1051   1.275       .  A
C1042      C1100   1.478       .  S
O1043     Ni1062   1.929       .  S
O1043      C1049   1.270       .  A
O1044     Ni1062   1.901       .  S
O1044      C1046   1.264       .  A
Ni1045     O1048   1.929       .  S
Ni1045     O1050   1.901       .  S
C1046      O1056   1.272       .  A
C1046      C1068   1.437       .  S
O1047     Ni1063   1.913       .  S
O1047      C1053   1.273       .  A
O1048      C1053   1.276       .  A
C1049      C1090   1.476       .  S
O1050      C1052   1.264       .  A
O1051     Ni1062   1.922       .  S
C1052      O1058   1.273       .  A
C1052      C1066   1.439       .  S
C1053      C1083   1.475       .  S
H1054      O1055   0.966       .  S
O1055     Ni1063   1.909       .  S
O1055     Ni1057   1.909       .  S
O1055     Ni1062   1.918       .  S
O1056     Ni1057   1.935       .  S
Ni1057     O1061   1.904       .  S
Ni1057     O1059   1.919       .  S
O1058     Ni1063   1.939       .  S
C1060      O1061   1.267       .  A
C1060      C1073   1.480       .  S
C1065      C1066   1.208       .  T
C1067      C1068   1.207       .  T
C1069      C1070   1.406       .  A
C1069      C1074   1.399       .  A
C1069      H1075   1.083       .  S
C1070      C1071   1.403       .  A
C1071      C1072   1.394       .  A
C1071      H1076   1.083       .  S
C1072      C1073   1.406       .  A
C1072      H1077   1.083       .  S
C1073      C1074   1.406       .  A
C1074      H1078   1.083       .  S
C1079      C1080   1.407       .  A
C1079      C1084   1.400       .  A
C1079      H1085   1.083       .  S
C1080      C1081   1.405       .  A
C1081      C1082   1.397       .  A
C1081      H1086   1.083       .  S
C1082      C1083   1.403       .  A
C1082      H1087   1.083       .  S
C1083      C1084   1.404       .  A
C1084      H1088   1.083       .  S
C1089      C1090   1.404       .  A
C1089      C1094   1.397       .  A
C1089      H1095   1.083       .  S
C1090      C1091   1.406       .  A
C1091      C1092   1.395       .  A
C1091      H1096   1.083       .  S
C1092      C1093   1.404       .  A
C1092      H1097   1.083       .  S
C1093      C1094   1.406       .  A
C1094      H1098   1.083       .  S
C1099      C1100   1.405       .  A
C1099      C1104   1.395       .  A
C1099      H1105   1.083       .  S
C1100      C1101   1.405       .  A
C1101      C1102   1.402       .  A
C1101      H1106   1.083       .  S
C1102      C1103   1.406       .  A
C1102      H1107   1.083       .  S
C1103      C1104   1.403       .  A
C1104      H1108   1.083       .  S
C1109      C1110   1.403       .  A
C1109      C1114   1.394       .  A
C1109      H1115   1.083       .  S
C1110      C1111   1.408   1_554  A
C1111      C1112   1.400       .  A
C1111      H1116   1.083       .  S
C1112      C1113   1.403   1_556  A
C1112      H1117   1.083       .  S
C1113      C1114   1.404       .  A
C1114      H1118   1.083       .  S
C1119      C1120   1.404       .  A
C1119      C1124   1.396       .  A
C1119      H1125   1.083       .  S
C1120      C1160   1.474       .  S
C1120      C1285   1.405   1_554  A
C1121      C1284   1.405       .  A
C1121      C1122   1.398       .  A
C1121      H1126   1.083       .  S
C1122      C1287   1.403       .  A
C1122      H1127   1.083       .  S
C1123      C1286   1.403   1_554  A
C1123      C1124   1.404       .  A
C1124      H1128   1.083       .  S
C1129      C1130   1.404       .  A
C1129      C1134   1.393       .  A
C1129      H1135   1.083       .  S
C1130      C1295   1.405       .  A
C1131      C1294   1.405   1_554  A
C1131      C1132   1.400       .  A
C1131      H1136   1.083       .  S
C1132      C1297   1.407   1_554  A
C1132      H1137   1.083       .  S
C1133      C1162   1.477       .  S
C1133      C1296   1.407       .  A
C1133      C1134   1.404       .  A
C1134      H1138   1.083       .  S
C1139      C1304   1.406   1_554  A
C1139      C1308   1.399       .  A
C1139      H1145   1.083       .  S
C1140      C1303   1.406       .  A
C1140      C1141   1.404       .  A
C1141      C1142   1.395       .  A
C1141      H1146   1.083       .  S
C1142      C1143   1.402       .  A
C1142      H1147   1.083       .  S
C1143      C1144   1.403       .  A
C1144      C1303   1.399       .  A
C1144      H1312   1.083       .  S
H1148      C1308   1.083       .  S
O1150     Ni1157   1.915   1_565  S
O1151      C1161   1.283       .  A
O1152      C1162   1.281       .  A
O1155      C1160   1.281   1_556  A
O1156     Ni1158   1.916       .  S
O1156      C1159   1.282       .  A
C1159      C1304   1.474       .  S
C1161      C1274   1.479       .  S
O1163     Ni1171   1.921   1_565  S
O1163      C1173   1.283       .  A
O1164      C1174   1.281       .  A
O1165      C1175   1.280       .  A
O1166      C1176   1.282       .  A
O1167      C1176   1.281       .  A
O1168      C1175   1.282       .  A
O1169     Ni1172   1.919       .  S
O1169      C1174   1.282       .  A
O1170      C1173   1.281       .  A
C1173      C1244   1.480       .  S
C1174      C1267   1.476       .  S
C1175      C1257   1.476       .  S
C1176      C1234   1.476       .  S
O1177     Ni1183   1.927       .  S
O1177      C1198   1.270       .  A
O1178     Ni1201   1.906       .  S
O1179      H1202   0.966       .  S
O1179     Ni1195   1.908       .  S
C1180      O1197   1.272       .  A
C1180      O1189   1.274       .  A
C1180      C1307   1.469       .  S
O1181     Ni1200   1.927       .  S
O1181      C1187   1.270       .  A
O1182     Ni1200   1.901       .  S
O1182      C1184   1.265       .  A
Ni1183     O1186   1.927       .  S
Ni1183     O1188   1.899       .  S
C1184      O1194   1.273       .  A
C1184      C1229   1.439       .  S
O1185     Ni1201   1.909       .  S
O1185      C1191   1.272       .  A
O1186      C1191   1.275       .  A
C1187      C1294   1.475       .  S
O1188      C1190   1.264       .  A
O1189     Ni1200   1.923       .  S
C1190      O1196   1.271       .  A
C1190      C1231   1.436       .  S
C1191      C1287   1.472       .  S
H1192      O1193   0.966       .  S
O1193     Ni1201   1.911       .  S
O1194     Ni1195   1.937       .  S
Ni1195     O1199   1.908       .  S
Ni1195     O1197   1.910       .  S
O1196     Ni1201   1.935       .  S
C1198      C1277   1.475       .  S
O1203     Ni1209   1.930       .  S
O1203      C1224   1.272       .  A
O1204     Ni1227   1.903       .  S
O1204      C1213   1.266       .  A
O1205      H1228   0.966       .  S
O1205     Ni1209   1.918       .  S
O1205     Ni1227   1.910       .  S
O1205     Ni1221   1.913       .  S
C1206      O1223   1.275       .  A
C1206      O1215   1.275       .  A
C1206      C1264   1.478       .  S
O1207     Ni1226   1.929       .  S
O1207      C1213   1.270       .  A
O1208     Ni1226   1.901       .  S
O1208      C1210   1.264       .  A
Ni1209     O1212   1.929       .  S
Ni1209     O1214   1.901       .  S
C1210      O1220   1.272       .  A
C1210      C1232   1.437       .  S
O1211     Ni1227   1.913       .  S
O1211      C1217   1.273       .  A
O1212      C1217   1.276       .  A
C1213      C1254   1.476       .  S
O1214      C1216   1.264       .  A
O1215     Ni1226   1.922       .  S
C1216      O1222   1.273       .  A
C1216      C1230   1.439       .  S
C1217      C1247   1.475       .  S
H1218      O1219   0.966       .  S
O1219     Ni1227   1.909       .  S
O1219     Ni1221   1.909       .  S
O1219     Ni1226   1.918       .  S
O1220     Ni1221   1.935       .  S
Ni1221     O1225   1.904       .  S
Ni1221     O1223   1.919       .  S
O1222     Ni1227   1.939       .  S
C1224      O1225   1.267       .  A
C1224      C1237   1.480       .  S
C1229      C1230   1.208       .  T
C1231      C1232   1.207       .  T
C1233      C1234   1.406       .  A
C1233      C1238   1.399       .  A
C1233      H1239   1.083       .  S
C1234      C1235   1.403       .  A
C1235      C1236   1.394       .  A
C1235      H1240   1.083       .  S
C1236      C1237   1.406       .  A
C1236      H1241   1.083       .  S
C1237      C1238   1.406       .  A
C1238      H1242   1.083       .  S
C1243      C1244   1.407       .  A
C1243      C1248   1.400       .  A
C1243      H1249   1.083       .  S
C1244      C1245   1.405       .  A
C1245      C1246   1.397       .  A
C1245      H1250   1.083       .  S
C1246      C1247   1.403       .  A
C1246      H1251   1.083       .  S
C1247      C1248   1.404       .  A
C1248      H1252   1.083       .  S
C1253      C1254   1.404       .  A
C1253      C1258   1.397       .  A
C1253      H1259   1.083       .  S
C1254      C1255   1.406       .  A
C1255      C1256   1.395       .  A
C1255      H1260   1.083       .  S
C1256      C1257   1.404       .  A
C1256      H1261   1.083       .  S
C1257      C1258   1.406       .  A
C1258      H1262   1.083       .  S
C1263      C1264   1.405       .  A
C1263      C1268   1.395       .  A
C1263      H1269   1.083       .  S
C1264      C1265   1.405       .  A
C1265      C1266   1.402       .  A
C1265      H1270   1.083       .  S
C1266      C1267   1.406       .  A
C1266      H1271   1.083       .  S
C1267      C1268   1.403       .  A
C1268      H1272   1.083       .  S
C1273      C1274   1.403       .  A
C1273      C1278   1.394       .  A
C1273      H1279   1.083       .  S
C1274      C1275   1.408       .  A
C1275      C1276   1.400       .  A
C1275      H1280   1.083       .  S
C1276      C1277   1.403       .  A
C1276      H1281   1.083       .  S
C1277      C1278   1.404       .  A
C1278      H1282   1.083       .  S
C1283      C1284   1.404       .  A
C1283      C1288   1.396       .  A
C1283      H1289   1.083       .  S
C1285      C1286   1.398       .  A
C1285      H1290   1.083       .  S
C1286      H1291   1.083       .  S
C1287      C1288   1.404       .  A
C1288      H1292   1.083       .  S
C1293      C1294   1.404       .  A
C1293      C1298   1.393       .  A
C1293      H1299   1.083       .  S
C1295      C1296   1.400       .  A
C1295      H1300   1.083       .  S
C1296      H1301   1.083       .  S
C1297      C1298   1.404       .  A
C1298      H1302   1.083       .  S
C1303      H1309   1.083       .  S
C1304      C1305   1.404       .  A
C1305      C1306   1.395       .  A
C1305      H1310   1.083       .  S
C1306      C1307   1.402       .  A
C1306      H1311   1.083       .  S
C1307      C1308   1.403   1_556  A
