geometry optimzed in LAMMPS
_audit_creation_date              2020-11-30 
_audit_creation_method            'lammps2cif' 
_symmetry_space_group_name_H-M    'P1' 
_symmetry_Int_Tables_number       1 
_symmetry_cell_setting            triclinic 
loop_ 
_symmetry_equiv_pos_as_xyz 
  x,y,z 
_cell_length_a                    25.428713910249716 
_cell_length_b                    35.229562282712386 
_cell_length_c                    36.27803184971303 
_cell_angle_alpha                 81.14912688781509 
_cell_angle_beta                  89.22844360548332 
_cell_angle_gamma                 89.30526038066617 
loop_ 
_atom_site_label 
_atom_site_type_symbol 
_atom_site_fract_x 
_atom_site_fract_y 
_atom_site_fract_z 
_atom_site_charge 
C1          C  0.50412323  0.51003668  0.51452058     0.01030
C2          C  0.50794544  0.47137200  0.01240278     0.01020
C3          C  0.00331926  0.97386314  0.07897994     0.01030
C4          C  0.00434795  0.01049693  0.08886014     0.01020
Zr5        Zr  0.21895226  0.20454662  0.99030316     2.17510
O6          O  0.24113472  0.14911625  0.96032998    -0.50870
O7          O  0.15200862  0.22905083  0.44422519    -0.74080
O8          O  0.15919471  0.14919788  0.01022723    -0.80860
O9          O  0.33676509  0.25969975  0.44630068    -0.82600
O10         O  0.12952787  0.15736681  0.06778805    -0.78230
O11         O  0.28041921  0.21333874  0.43580276    -0.89860
O12         O  0.12756602  0.28896598  0.45354969    -0.75830
O13         O  0.15196303  0.23387625  0.02376377    -0.85320
O14         O  0.23093094  0.27242952  0.47834392    -0.85010
O15         O  0.23291353  0.18033720  0.05550132    -0.71760
O16         O  0.30503406  0.21639316  0.01319854    -0.83900
Zr17       Zr  0.26384714  0.28946014  0.09944806     2.26420
Zr18       Zr  0.16727339  0.21177725  0.08841870     2.06270
Zr19       Zr  0.31505411  0.28448342  0.00214966     2.10050
Zr20       Zr  0.16477576  0.30144417  0.01171139     1.78760
O21         O  0.40878627  0.28370927  0.98741158    -0.92700
O22         O  0.07106961  0.29836545  0.02694307    -0.40510
O23         O  0.24937368  0.31458114  0.03500254    -0.77140
O24         O  0.17717154  0.27970661  0.07692556    -0.95830
O25         O  0.25186169  0.22191084  0.11160554    -0.89130
O26         O  0.33047363  0.26036698  0.06601360    -0.91980
C27         C  0.12694613  0.26098743  0.43474072     1.01770
C28         C  0.32016578  0.23555971  0.42636263     1.14710
C29         C  0.13125730  0.13896525  0.04010443     1.05490
O30         O  0.07475633  0.22899560  0.08935915    -0.94130
O31         O  0.15103905  0.23174193  0.14812881    -0.89880
O32         O  0.20288235  0.28287505  0.15294694    -0.83020
C33         C  0.16658959  0.25884656  0.16500333     1.12130
O34         O  0.35510824  0.13925164  0.05064370    -0.96110
Zr35       Zr  0.31768121  0.19283029  0.07802064     1.88940
O36         O  0.32531087  0.26206708  0.14750515    -0.72750
O37         O  0.15888366  0.15875715  0.13985760    -0.52020
O38         O  0.29647711  0.13209750  0.11705282    -0.96700
O39         O  0.41349784  0.19738669  0.07358629    -0.53910
O40         O  0.34206647  0.20039524  0.14068051    -0.73270
C41         C  0.34486724  0.22859274  0.15900843     0.99070
O42         O  0.25231644  0.34962554  0.12421332    -0.62090
O43         O  0.29606207  0.34378036  0.46013887    -0.56890
O44         O  0.32655012  0.34168632  0.08267856    -0.93580
O45         O  0.36018024  0.33484025  0.02558049    -0.92000
O46         O  0.17898076  0.35896688  0.46610730    -0.92360
O47         O  0.13583045  0.36157105  0.03123091    -0.91140
C48         C  0.35661480  0.35186702  0.05416268     1.17920
H49         H  0.22958455  0.28177027  0.45191577     0.33860
H50         H  0.15088897  0.29201571  0.09065086     0.44710
H51         H  0.36502701  0.26723430  0.07333642     0.38240
H52         H  0.22882405  0.15280774  0.06017169     0.34720
H53         H  0.05611974  0.32342865  0.01554738     0.26500
H54         H  0.12098867  0.15249790  0.14116699     0.32440
H55         H  0.32700545  0.12603830  0.13364052     0.38350
H56         H  0.14452421  0.36475793  0.45399508     0.32810
H57         H  0.33085069  0.35531258  0.45342907     0.31690
H58         H  0.41409286  0.30654167  0.46820111     0.33370
H59         H  0.42724636  0.17235736  0.08605219     0.32340
H60         H  0.15981655  0.36508774  0.05169151     0.36340
H61         H  0.21405849  0.35517321  0.12315348     0.29070
H62         H  0.20754975  0.14024258  0.45112358     0.33300
H63         H  0.37275590  0.12222139  0.07115327     0.36150
H64         H  0.28303880  0.33587362  0.43694286     0.28760
H65         H  0.26028687  0.34356670  0.15112516     0.41630
H66         H  0.06232574  0.22640587  0.06416575     0.31690
H67         H  0.05679941  0.27977218  0.01188772     0.39310
H68         H  0.42332958  0.21560217  0.09049680     0.31160
H69         H  0.17641026  0.13645827  0.13112335     0.31220
H70         H  0.25088306  0.12858691  0.98095957     0.31490
Zr71       Zr  0.75806307  0.19536071  0.11630976     2.17510
O72         O  0.72392155  0.13966980  0.15746644    -0.50870
O73         O  0.81954128  0.21360846  0.16102126    -0.74080
O74         O  0.81469459  0.13696371  0.11659208    -0.80860
O75         O  0.63905473  0.25562159  0.13569224    -0.82600
O76         O  0.85488011  0.14321213  0.05958839    -0.78230
O77         O  0.69389924  0.20976760  0.16454598    -0.89860
O78         O  0.85853561  0.26911227  0.13430419    -0.75830
O79         O  0.83228506  0.22220245  0.08030974    -0.85320
O80         O  0.74888286  0.26369878  0.10823500    -0.85010
O81         O  0.75302966  0.17232853  0.05729695    -0.71760
O82         O  0.67663159  0.21111398  0.08403836    -0.83900
Zr83       Zr  0.73782703  0.28149639  0.47848410     2.26420
Zr84       Zr  0.82586491  0.20077908  0.02108303     2.06270
Zr85       Zr  0.67051533  0.27961628  0.07386575     2.10050
Zr86       Zr  0.82177051  0.29012438  0.07246756     1.78760
O87         O  0.57499536  0.28276114  0.07883064    -0.92700
O88         O  0.91602198  0.29458816  0.06009574    -0.40510
O89         O  0.74325682  0.30578428  0.03711719    -0.77140
O90         O  0.81868394  0.26891444  0.01259517    -0.95830
O91         O  0.74589176  0.21348336  0.98831214    -0.89130
O92         O  0.66426259  0.25626722  0.01591912    -0.91980
C93         C  0.85195780  0.24120166  0.16127925     1.01770
C94         C  0.65374139  0.23266095  0.16463363     1.14710
C95         C  0.84504892  0.12450258  0.09201711     1.05490
O96         O  0.92135275  0.19891718  0.02075847    -0.94130
O97         O  0.86201672  0.22719991  0.46080888    -0.89880
O98         O  0.80014805  0.26537023  0.42975191    -0.83020
C99         C  0.84428106  0.24663133  0.43077922     1.12130
O100        O  0.63855388  0.13043992  0.06353813    -0.96110
Zr101      Zr  0.67272391  0.18835881  0.02548104     1.88940
O102        O  0.67263242  0.26148463  0.43582782    -0.72750
O103        O  0.82074606  0.15434558  0.47837426    -0.52020
O104        O  0.68888606  0.12995731  0.49826788    -0.96700
O105        O  0.57788615  0.19760331  0.03274509    -0.53910
O106        O  0.64519224  0.20264004  0.46164843    -0.73270
C107        C  0.64549120  0.23091253  0.43498670     0.99070
O108        O  0.77291322  0.33877322  0.43987981    -0.62090
O109        O  0.68535390  0.33672736  0.10247887    -0.56890
O110        O  0.67921264  0.33759931  0.47462640    -0.93580
O111        O  0.63852765  0.33402544  0.03155848    -0.92000
O112        O  0.79811508  0.34229795  0.10665033    -0.92360
O113        O  0.85172895  0.35297607  0.04278047    -0.91140
C114        C  0.64806340  0.35054867  0.99822342     1.17920
H115        H  0.74740387  0.27279414  0.13202734     0.33860
H116        H  0.84764121  0.28061434  0.99767819     0.44710
H117        H  0.63154527  0.26463116  0.00392778     0.38240
H118        H  0.75517614  0.14465251  0.06059938     0.34720
H119        H  0.93104975  0.30235713  0.08281629     0.26500
H120        H  0.84853888  0.13516023  0.48654661     0.32440
H121        H  0.65879088  0.12783272  0.48174791     0.38350
H122        H  0.82943777  0.34569724  0.12168560     0.32810
H123        H  0.65257132  0.35217067  0.09861954     0.31690
H124        H  0.56221657  0.27340612  0.05621933     0.33370
H125        H  0.56140549  0.17285185  0.03031573     0.32340
H126        H  0.83463593  0.35696990  0.01809878     0.36340
H127        H  0.76936441  0.35960306  0.45525085     0.29070
H128        H  0.75341229  0.12994665  0.17396483     0.33300
H129        H  0.61422275  0.11864218  0.04758643     0.36150
H130        H  0.68661912  0.32767867  0.12965686     0.28760
H131        H  0.81138951  0.33433057  0.43885649     0.41630
H132        H  0.93225774  0.22595309  0.01365643     0.31690
H133        H  0.92796217  0.26770958  0.06060024     0.39310
H134        H  0.56684358  0.21506061  0.01007762     0.31160
H135        H  0.78676747  0.14064866  0.98519180     0.31220
H136        H  0.71883186  0.11982458  0.14128508     0.31490
Zr137      Zr  0.75470060  0.78945287  0.10145349     2.17510
O138        O  0.73006182  0.84864921  0.12446404    -0.50870
O139        O  0.81264518  0.76493970  0.15289635    -0.74080
O140        O  0.68957346  0.77789350  0.15187094    -0.80860
O141        O  0.84983693  0.84380561  0.03236617    -0.82600
O142        O  0.63944445  0.72708553  0.14262303    -0.78230
O143        O  0.81418858  0.84464583  0.08948198    -0.89860
O144        O  0.85166586  0.71097627  0.13899545    -0.75830
O145        O  0.74775224  0.72127060  0.11137787    -0.85320
O146        O  0.82713921  0.76538747  0.06933933    -0.85010
O147        O  0.67112478  0.77562802  0.07619667    -0.71760
O148        O  0.74491092  0.81655714  0.03708582    -0.83900
Zr149      Zr  0.72708362  0.70967872  0.98816696     2.26420
Zr150      Zr  0.66631260  0.70688616  0.08453259     2.06270
Zr151      Zr  0.81610287  0.79091206  0.00509720     2.10050
Zr152      Zr  0.81971138  0.69758967  0.07914809     1.78760
O153        O  0.80434385  0.84746161  0.45812992    -0.92700
O154        O  0.79925597  0.63731469  0.11910569    -0.40510
O155        O  0.81027426  0.72281738  0.01426646    -0.77140
O156        O  0.73834306  0.68196464  0.05253600    -0.95830
O157        O  0.65507105  0.73362639  0.02065746    -0.89130
O158        O  0.73431283  0.77782688  0.47914704    -0.91980
C159        C  0.84409081  0.73611035  0.16080951     1.01770
C160        C  0.84431831  0.85895446  0.06208743     1.14710
C161        C  0.65239320  0.75374805  0.16099933     1.05490
O162        O  0.67822639  0.65064167  0.13172954    -0.94130
O163        O  0.63140259  0.65446192  0.05596277    -0.89880
O164        O  0.66865047  0.65460104  0.99907234    -0.83020
C165        C  0.63839098  0.63972645  0.02594459     1.12130
O166        O  0.63479512  0.85975065  0.03617403    -0.96110
Zr167      Zr  0.66256408  0.80161972  0.01195929     1.88940
O168        O  0.66013128  0.73206198  0.44163583    -0.72750
O169        O  0.57053406  0.70698731  0.08855971    -0.52020
O170        O  0.56983497  0.79310885  0.02874394    -0.96700
O171        O  0.66868291  0.85961739  0.46575928    -0.53910
O172        O  0.62492388  0.78803281  0.45484153    -0.73270
C173        C  0.62907186  0.76142665  0.43454528     0.99070
O174        O  0.76275363  0.65245658  0.46599849    -0.62090
O175        O  0.91157552  0.78831091  0.99851754    -0.56890
O176        O  0.78484865  0.72364966  0.43329253    -0.93580
O177        O  0.84273236  0.76667598  0.44886777    -0.92000
O178        O  0.91503454  0.70185654  0.07254427    -0.92360
O179        O  0.86346444  0.64475926  0.05449544    -0.91140
C180        C  0.82602194  0.74455549  0.42664095     1.17920
H181        H  0.86027320  0.77307166  0.07847139     0.33860
H182        H  0.73628355  0.65432009  0.05517371     0.44710
H183        H  0.73348321  0.78827818  0.45293169     0.38240
H184        H  0.64259919  0.78629803  0.08929153     0.34720
H185        H  0.83292674  0.62288372  0.12225509     0.26500
H186        H  0.56200341  0.68944145  0.11185063     0.32440
H187        H  0.55224827  0.81762605  0.01864743     0.38350
H188        H  0.92895518  0.68626645  0.09546235     0.32810
H189        H  0.92072689  0.81159142  0.98076758     0.31690
H190        H  0.78455689  0.86596692  0.47111275     0.33370
H191        H  0.63292311  0.86373066  0.45530711     0.32340
H192        H  0.83822996  0.63708136  0.03651293     0.36340
H193        H  0.80136400  0.65590498  0.46528058     0.29070
H194        H  0.72700123  0.84230570  0.15194998     0.33300
H195        H  0.60532770  0.87105771  0.02045513     0.36150
H196        H  0.92543482  0.79304010  0.02275997     0.28760
H197        H  0.75742451  0.63093638  0.98668188     0.41630
H198        H  0.69758130  0.66001893  0.15195611     0.31690
H199        H  0.79161301  0.64463329  0.14390822     0.39310
H200        H  0.69027453  0.85213313  0.44508672     0.31160
H201        H  0.56058486  0.73288598  0.09385808     0.31220
H202        H  0.69373633  0.85427758  0.11568125     0.31490
Zr203      Zr  0.25292973  0.69199186  0.99398628     2.17510
O204        O  0.22986043  0.63204881  0.47236952    -0.50870
O205        O  0.31603628  0.70998924  0.44342786    -0.74080
O206        O  0.18791119  0.70229073  0.44430482    -0.80860
O207        O  0.35571438  0.63894031  0.05811280    -0.82600
O208        O  0.13906106  0.75477132  0.45288368    -0.78230
O209        O  0.30899193  0.63547803  0.00580814    -0.89860
O210        O  0.36334627  0.76139421  0.45461318    -0.75830
O211        O  0.24655292  0.75994898  0.48031047    -0.85320
O212        O  0.32855911  0.71630927  0.02001390    -0.85010
O213        O  0.17164724  0.70747658  0.02319346    -0.71760
O214        O  0.24803748  0.66817657  0.05963707    -0.83900
Zr215      Zr  0.23832059  0.77925403  0.10148858     2.26420
Zr216      Zr  0.16679777  0.77605924  0.01009036     2.06270
Zr217      Zr  0.32356658  0.69368588  0.08510915     2.10050
Zr218      Zr  0.32182225  0.78433808  0.00729441     1.78760
O219        O  0.31651770  0.63749462  0.13305153    -0.92700
O220        O  0.31180354  0.83485985  0.45379780    -0.40510
O221        O  0.31912592  0.76232245  0.07293820    -0.77140
O222        O  0.24191734  0.80252111  0.03564476    -0.95830
O223        O  0.16228288  0.75475500  0.07587325    -0.89130
O224        O  0.24499206  0.71106567  0.11481467    -0.91980
C225        C  0.35303658  0.73455674  0.43582956     1.01770
C226        C  0.34415855  0.62299550  0.02980636     1.14710
C227        C  0.15130555  0.72723005  0.43491519     1.05490
O228        O  0.15920966  0.83062582  0.46073719    -0.94130
O229        O  0.13565069  0.83236793  0.03452923    -0.89880
O230        O  0.17212266  0.83119290  0.09176237    -0.83020
C231        C  0.14176957  0.84599013  0.06495888     1.12130
O232        O  0.12468252  0.63220839  0.07013375    -0.96110
Zr233      Zr  0.16905456  0.68680782  0.08948242     1.88940
O234        O  0.18535506  0.75885992  0.15678695    -0.72750
O235        O  0.07192312  0.76803755  0.01685826    -0.52020
O236        O  0.07473248  0.69996969  0.08713756    -0.96700
O237        O  0.18165991  0.62671031  0.13176852    -0.53910
O238        O  0.14682719  0.70224652  0.15123547    -0.73270
C239        C  0.15621140  0.73012051  0.16923229     0.99070
O240        O  0.27208926  0.83981907  0.11555233    -0.62090
O241        O  0.41938184  0.69452102  0.08633878    -0.56890
O242        O  0.30309268  0.76748316  0.15182242    -0.93580
O243        O  0.35607271  0.71916346  0.13844669    -0.92000
O244        O  0.41454619  0.78206831  0.02357191    -0.92360
O245        O  0.34670593  0.84802805  0.01881086    -0.91140
C246        C  0.34260895  0.74430728  0.15894173     1.17920
H247        H  0.36083152  0.70698971  0.01009612     0.33860
H248        H  0.23946637  0.83022958  0.03141440     0.44710
H249        H  0.24724580  0.70235189  0.14130722     0.38240
H250        H  0.14243448  0.69624630  0.01214050     0.34720
H251        H  0.34784549  0.83929252  0.44346983     0.26500
H252        H  0.05695188  0.78713534  0.99673807     0.32440
H253        H  0.06080866  0.68784379  0.11171062     0.38350
H254        H  0.42913416  0.80623636  0.51001184     0.32810
H255        H  0.42970480  0.66916224  0.10024004     0.31690
H256        H  0.30117916  0.64706241  0.15512882     0.33370
H257        H  0.14857233  0.62317009  0.14654135     0.32340
H258        H  0.34879642  0.84559981  0.04630366     0.36340
H259        H  0.31076231  0.83711516  0.11340965     0.29070
H260        H  0.23179957  0.63724315  0.44477442     0.33300
H261        H  0.09497828  0.62609756  0.08789886     0.36150
H262        H  0.43093078  0.69364849  0.06030607     0.28760
H263        H  0.26294513  0.85926664  0.09381361     0.41630
H264        H  0.19603327  0.83756190  0.45383305     0.31690
H265        H  0.29331698  0.82260628  0.43492419     0.39310
H266        H  0.20808067  0.63262279  0.14976511     0.31160
H267        H  0.06479393  0.74286490  0.00911221     0.31220
H268        H  0.19207878  0.62846018  0.47858432     0.31490
C269        C  0.00549697  0.24683160  0.27551419     0.01030
C270        C  0.99980051  0.26002529  0.30977896     0.01020
C271        C  0.99584763  0.72788347  0.28197624     0.01030
C272        C  0.99475266  0.72889269  0.31999926     0.01020
C273        C  0.49488700  0.75442621  0.27504399     0.01030
C274        C  0.49383349  0.75272127  0.31324081     0.01020
C275        C  0.49091007  0.22554676  0.28037057     0.01030
C276        C  0.48880683  0.22604905  0.31834426     0.01020
C277        C  0.37581916  0.74580213  0.19287725    -0.04880
C278        C  0.40501715  0.71267202  0.20907676    -0.01990
C279        C  0.44005137  0.71449977  0.23853086     0.03000
C280        C  0.44785972  0.74934648  0.25199177    -0.04880
C281        C  0.41475337  0.78105771  0.23923326    -0.01980
C282        C  0.37937148  0.77957439  0.20968954     0.02990
C283        C  0.39885737  0.67565957  0.19680562     0.37640
C284        C  0.41296512  0.81365658  0.25927842     0.37630
C285        C  0.34706825  0.81316900  0.19730053     0.36060
C286        C  0.46307732  0.67922984  0.25777331     0.36060
N287        N  0.32155167  0.84039157  0.18850392    -0.38760
N288        N  0.47869492  0.65001671  0.27284788    -0.38760
N289        N  0.41032586  0.83949160  0.27545702    -0.38210
N290        N  0.39569552  0.64564115  0.18786577    -0.38210
C291        C  0.45068688  0.73157566  0.33846280    -0.04880
C292        C  0.39626589  0.74157175  0.33514341    -0.01990
C293        C  0.36630519  0.74555423  0.36717695     0.03000
C294        C  0.38598534  0.73195240  0.40266468    -0.04880
C295        C  0.43525685  0.71330376  0.40599478    -0.01980
C296        C  0.46666470  0.71183159  0.37384558     0.02990
C297        C  0.36527332  0.73186671  0.30495564     0.37640
C298        C  0.45465198  0.69724289  0.44261563     0.37630
C299        C  0.51680845  0.69180130  0.37788177     0.36060
C300        C  0.31389597  0.76229807  0.36332179     0.36060
N301        N  0.55642988  0.67540631  0.38261342    -0.38760
N302        N  0.27222402  0.77574146  0.35995551    -0.38760
N303        N  0.47019016  0.68450223  0.47180479    -0.38210
N304        N  0.33715321  0.72317983  0.28290741    -0.38210
C305        C  0.04675933  0.72969872  0.25991205    -0.04880
C306        C  0.05955497  0.76370620  0.23520722    -0.01990
C307        C  0.10543412  0.76501792  0.21322428     0.03000
C308        C  0.12827225  0.73054150  0.20559231    -0.04880
C309        C  0.11756662  0.69654078  0.23052409    -0.01980
C310        C  0.08041979  0.69720401  0.25992583     0.02990
C311        C  0.02646950  0.79781589  0.23105873     0.37640
C312        C  0.14591901  0.66135254  0.22681638     0.37630
C313        C  0.07663553  0.66403806  0.28875325     0.36060
C314        C  0.12994149  0.80168549  0.20009298     0.36060
N315        N  0.07550966  0.63667881  0.31093583    -0.38760
N316        N  0.15025694  0.83082855  0.19050266    -0.38760
N317        N  0.16838289  0.63313155  0.22410869    -0.38210
N318        N  0.00273283  0.82634154  0.22602395    -0.38210
C319        C  0.11964136  0.72406781  0.40139325    -0.04880
C320        C  0.08737607  0.69205306  0.40063070    -0.01990
C321        C  0.04892013  0.69275092  0.37273116     0.03000
C322        C  0.04415338  0.72466258  0.34364090    -0.04880
C323        C  0.08174203  0.75455054  0.34222138    -0.01980
C324        C  0.11712868  0.75502658  0.37189994     0.02990
C325        C  0.09080519  0.65939178  0.43028262     0.37640
C326        C  0.08237130  0.78737034  0.31290826     0.37630
C327        C  0.14879649  0.78885178  0.37327007     0.36060
C328        C  0.01405243  0.66022479  0.37500179     0.36060
N329        N  0.17293422  0.81627224  0.37443605    -0.38760
N330        N  0.98817543  0.63309333  0.37823980    -0.38760
N331        N  0.08599555  0.81558509  0.29203965    -0.38210
N332        N  0.09298540  0.63316908  0.45374206    -0.38210
C333        C  0.59696760  0.76608925  0.39978285    -0.04880
C334        C  0.54700591  0.78474688  0.39811250    -0.01990
C335        C  0.51784216  0.78943213  0.36482917     0.03000
C336        C  0.53556154  0.77239857  0.33403351    -0.04880
C337        C  0.59027158  0.76402153  0.33282496    -0.01980
C338        C  0.61894792  0.75681863  0.36625671     0.02990
C339        C  0.52320170  0.79693690  0.43088856     0.37640
C340        C  0.62124661  0.77990666  0.30052839     0.37630
C341        C  0.67332695  0.74401479  0.36466414     0.36060
C342        C  0.46816560  0.81030302  0.36272854     0.36060
N343        N  0.71665138  0.73399947  0.36285711    -0.38760
N344        N  0.42883521  0.82730127  0.36148466    -0.38760
N345        N  0.64830779  0.79333352  0.27617474    -0.38210
N346        N  0.50316249  0.80686715  0.45661287    -0.38210
C347        C  0.62013891  0.75728017  0.19437441    -0.04880
C348        C  0.61633354  0.72591336  0.22337984    -0.01990
C349        C  0.57838982  0.72628437  0.25192490     0.03000
C350        C  0.54416268  0.75839594  0.25189256    -0.04880
C351        C  0.55261149  0.79152759  0.22508846    -0.01980
C352        C  0.58936350  0.79055459  0.19583422     0.02990
C353        C  0.65183488  0.69323331  0.22399822     0.37640
C354        C  0.52723890  0.82770511  0.22896295     0.37630
C355        C  0.59317439  0.82314387  0.16616472     0.36060
C356        C  0.57723965  0.69436543  0.28224460     0.36060
N357        N  0.59531760  0.84922200  0.14254830    -0.38760
N358        N  0.57845588  0.66831375  0.30589513    -0.38760
N359        N  0.50953514  0.85767237  0.23127767    -0.38210
N360        N  0.68019384  0.66717286  0.22494981    -0.38210
C361        C  0.85895499  0.74322605  0.39204555    -0.04880
C362        C  0.89346015  0.77385472  0.38019996    -0.01990
C363        C  0.93844439  0.76829942  0.35873618     0.03000
C364        C  0.94438533  0.73487980  0.34149223    -0.04880
C365        C  0.90371550  0.70709700  0.34752186    -0.01980
C366        C  0.86228357  0.71063140  0.37358242     0.02990
C367        C  0.88224112  0.81204322  0.38909323     0.37640
C368        C  0.90531488  0.67316814  0.32956018     0.37630
C369        C  0.82361147  0.68041973  0.38106434     0.36060
C370        C  0.97771661  0.79812432  0.35546936     0.36060
N371        N  0.79288046  0.65614641  0.38610082    -0.38760
N372        N  0.00605311  0.82361764  0.35527108    -0.38760
N373        N  0.90418324  0.64504505  0.31681514    -0.38210
N374        N  0.87392920  0.84281031  0.39529663    -0.38210
C375        C  0.87487424  0.73176537  0.19695611    -0.04880
C376        C  0.87880609  0.76215686  0.21850617    -0.01990
C377        C  0.91319686  0.75920912  0.24941248     0.03000
C378        C  0.94715418  0.72693749  0.25813792    -0.04880
C379        C  0.93963091  0.69534696  0.23878639    -0.01980
C380        C  0.90238948  0.69710461  0.20996231     0.02990
C381        C  0.84853888  0.79735950  0.20902204     0.37640
C382        C  0.96899371  0.65974706  0.24847740     0.37630
C383        C  0.89208707  0.66214219  0.19475973     0.36060
C384        C  0.91466604  0.79096676  0.27041924     0.36060
N385        N  0.88469077  0.63366348  0.18357868    -0.38760
N386        N  0.91404248  0.81765977  0.28544545    -0.38760
N387        N  0.98949205  0.62998736  0.25479355    -0.38210
N388        N  0.82457100  0.82560434  0.20207516    -0.38210
C389        C  0.54126032  0.23058615  0.25724039    -0.04880
C390        C  0.58194033  0.20237940  0.25943240    -0.01990
C391        C  0.62056048  0.20347813  0.23047620     0.03000
C392        C  0.62026959  0.23356783  0.19950012    -0.04880
C393        C  0.58455212  0.26478795  0.20108531    -0.01980
C394        C  0.54447402  0.26245214  0.22842209     0.02990
C395        C  0.58317611  0.17080714  0.29012197     0.37640
C396        C  0.58812991  0.30048686  0.17510717     0.37630
C397        C  0.50731332  0.29435707  0.22685473     0.36060
C398        C  0.65979966  0.17305318  0.23288580     0.36060
N399        N  0.48004636  0.32115704  0.22412734    -0.38760
N400        N  0.69097979  0.14861398  0.23563567    -0.38760
N401        N  0.58869294  0.32949486  0.15523025    -0.38210
N402        N  0.58563720  0.14490936  0.31390845    -0.38210
C403        C  0.61058220  0.22752735  0.40200959    -0.04880
C404        C  0.57298738  0.19746049  0.40406090    -0.01990
C405        C  0.53942047  0.19478812  0.37402495     0.03000
C406        C  0.53715461  0.22418712  0.34281659    -0.04880
C407        C  0.57580989  0.25340520  0.33974511    -0.01980
C408        C  0.61314610  0.25418536  0.36842004     0.02990
C409        C  0.56550566  0.16936249  0.43748511     0.37640
C410        C  0.57658214  0.28463948  0.30875461     0.37630
C411        C  0.65347432  0.28337709  0.36304556     0.36060
C412        C  0.50779894  0.16047872  0.37556075     0.36060
N413        N  0.68529948  0.30687459  0.35835685    -0.38760
N414        N  0.48484018  0.13200300  0.37826327    -0.38760
N415        N  0.57968962  0.31105881  0.28557729    -0.38210
N416        N  0.55802600  0.14664932  0.46359827    -0.38210
C417        C  0.88875658  0.23822433  0.19319507    -0.04880
C418        C  0.87113210  0.23613027  0.23053161    -0.01990
C419        C  0.90761817  0.22923997  0.26032120     0.03000
C420        C  0.96266126  0.22968846  0.25257663    -0.04880
C421        C  0.97634265  0.22077126  0.21657674    -0.01980
C422        C  0.94152377  0.22914247  0.18665843     0.02990
C423        C  0.81531772  0.23909873  0.23847358     0.37640
C424        C  0.01973078  0.19496620  0.21164133     0.37630
C425        C  0.95913479  0.22538213  0.14923406     0.36060
C426        C  0.88830736  0.20685774  0.29445831     0.36060
N427        N  0.97216862  0.22259820  0.11914714    -0.38760
N428        N  0.87141718  0.18803202  0.32083087    -0.38760
N429        N  0.05259918  0.17335334  0.20634454    -0.38210
N430        N  0.77075670  0.24144540  0.24477699    -0.38210
C431        C  0.87844094  0.24683615  0.39596180    -0.04880
C432        C  0.87248950  0.27498456  0.36357538    -0.01990
C433        C  0.90834460  0.27642375  0.33298755     0.03000
C434        C  0.95247122  0.25137285  0.33494250    -0.04880
C435        C  0.95705585  0.22221862  0.36599600    -0.01980
C436        C  0.91985079  0.21902404  0.39546045     0.02990
C437        C  0.83169633  0.30421390  0.36185751     0.37640
C438        C  0.00133531  0.19555179  0.36833300     0.37630
C439        C  0.92605196  0.18657035  0.42511203     0.36060
C440        C  0.90053021  0.30446047  0.29976904     0.36060
N441        N  0.93299790  0.16046273  0.44814816    -0.38760
N442        N  0.89329528  0.32677998  0.27337794    -0.38760
N443        N  0.03622026  0.17397658  0.37155266    -0.38210
N444        N  0.79988351  0.32817786  0.35981073    -0.38210
C445        C  0.35208059  0.23457808  0.39103195    -0.04880
C446        C  0.38324925  0.26697035  0.37741087    -0.01990
C447        C  0.42857363  0.26317278  0.35574127     0.03000
C448        C  0.43743398  0.22964635  0.33948023    -0.04880
C449        C  0.39935035  0.19997483  0.34634339    -0.01980
C450        C  0.35877765  0.20147517  0.37364860     0.02990
C451        C  0.36816776  0.30524905  0.38409394     0.37640
C452        C  0.40260745  0.16691210  0.32714158     0.37630
C453        C  0.32510004  0.16861392  0.38392067     0.36060
C454        C  0.46436675  0.29541815  0.34919028     0.36060
N455        N  0.29863499  0.14198886  0.39144399    -0.38760
N456        N  0.49059691  0.32239071  0.34502111    -0.38760
N457        N  0.40374162  0.13990286  0.31258098    -0.38210
N458        N  0.35765399  0.33648473  0.38776017    -0.38210
C459        C  0.37378445  0.22249660  0.19538425    -0.04880
C460        C  0.36543439  0.24768278  0.22185783    -0.01990
C461        C  0.40150629  0.24862145  0.25101706     0.03000
C462        C  0.44288704  0.22090993  0.25711648    -0.04880
C463        C  0.44379695  0.19088513  0.23517366    -0.02240
C464        C  0.41171068  0.19262130  0.20357928     0.02990
C465        C  0.31941275  0.27280164  0.21955756     0.37640
C466        C  0.47799769  0.15762256  0.24468213     0.37630
C467        C  0.41998608  0.16384956  0.17932023     0.36060
C468        C  0.39725063  0.28079433  0.27134851     0.36060
N469        N  0.42736739  0.14057460  0.16048887    -0.38760
N470        N  0.39112688  0.30809994  0.28507120    -0.38760
N471        N  0.50350033  0.13005419  0.25138681    -0.38210
N472        N  0.28266966  0.29265368  0.21826681    -0.38210
C473        C  0.04407688  0.27890332  0.32916176    -0.04880
C474        C  0.09556902  0.26350465  0.33172532    -0.01990
C475        C  0.11751459  0.25176120  0.36713961     0.03000
C476        C  0.09758776  0.26716076  0.39853017    -0.04880
C477        C  0.05478521  0.29375726  0.39254353    -0.01980
C478        C  0.03016356  0.30090237  0.35737218     0.02990
C479        C  0.13331553  0.28103091  0.30422963     0.37640
C480        C  0.03374913  0.31269020  0.42238949     0.37630
C481        C  0.99241389  0.33208810  0.34951341     0.36060
C482        C  0.16538090  0.22878689  0.36912145     0.36060
N483        N  0.96320959  0.35770252  0.34370360    -0.38760
N484        N  0.20343293  0.21032093  0.37025352    -0.38760
N485        N  0.01609374  0.32814151  0.44570224    -0.38210
N486        N  0.16424169  0.29549693  0.28307388    -0.38210
C487        C  0.13793983  0.26250965  0.20005839    -0.04880
C488        C  0.13784078  0.23107278  0.22926151    -0.01990
C489        C  0.09683851  0.22717000  0.25612923     0.03000
C490        C  0.05620693  0.25531643  0.25424133    -0.04880
C491        C  0.06049055  0.28917959  0.22786145    -0.01980
C492        C  0.10116079  0.29268370  0.20071053     0.02990
C493        C  0.17820082  0.20147182  0.23011429     0.37640
C494        C  0.02141293  0.31951239  0.22733251     0.37630
C495        C  0.10259044  0.32589942  0.17164088     0.36060
C496        C  0.09412990  0.19255487  0.28341965     0.36060
N497        N  0.10364986  0.35240329  0.14843888    -0.38760
N498        N  0.09291199  0.16425900  0.30432786    -0.38760
N499        N  0.99072472  0.34411543  0.22660096    -0.38210
N500        N  0.21045848  0.17793781  0.23068750    -0.38210
C501        C  0.95213074  0.03048039  0.09447608    -0.04880
C502        C  0.92094651  0.04407871  0.06331676    -0.01990
C503        C  0.87562179  0.06591246  0.06770694     0.03000
C504        C  0.87044164  0.08554858  0.09868543    -0.04880
C505        C  0.90030916  0.07216672  0.13057074    -0.01980
C506        C  0.93820519  0.04233142  0.12929693     0.02990
C507        C  0.94059904  0.04383127  0.02576534     0.37640
C508        C  0.89456135  0.09044557  0.16354124     0.37630
C509        C  0.96649202  0.02708776  0.16284633     0.36060
C510        C  0.83500239  0.06888407  0.03976277     0.36060
N511        N  0.98894692  0.01510058  0.18976876    -0.38760
N512        N  0.80201737  0.06958365  0.01800492    -0.38760
N513        N  0.89009327  0.10519622  0.18981431    -0.38210
N514        N  0.95623148  0.04667069  0.99538888    -0.38210
C515        C  0.09967090  0.10290298  0.04667420    -0.04880
C516        C  0.12413306  0.06626214  0.04789016    -0.01990
C517        C  0.10136293  0.03309676  0.06997411     0.03000
C518        C  0.05284695  0.03661655  0.08915405    -0.04880
C519        C  0.04196213  0.07403382  0.09590912    -0.01980
C520        C  0.05304501  0.10451499  0.06801348     0.02990
C521        C  0.17376272  0.06285411  0.02860347     0.37640
C522        C  0.04797533  0.08188228  0.13358268     0.37630
C523        C  0.02342833  0.13966768  0.06837140     0.36060
C524        C  0.13645077  0.00173251  0.08400247     0.36060
N525        N  0.99875181  0.16718253  0.06955134    -0.38760
N526        N  0.16555286  0.97729904  0.09528269    -0.38760
N527        N  0.05409401  0.08859544  0.16347297    -0.38210
N528        N  0.20997549  0.06029725  0.50902732    -0.38210
C529        C  0.05062393  0.94798422  0.07788466    -0.04880
C530        C  0.05629408  0.91723069  0.10755774    -0.01990
C531        C  0.08091498  0.88280405  0.10157702     0.03000
C532        C  0.11138975  0.88145221  0.06924384    -0.04880
C533        C  0.11195929  0.91394388  0.04097179    -0.01980
C534        C  0.07990827  0.94639470  0.04447003     0.02990
C535        C  0.03931337  0.92124085  0.14497678     0.37640
C536        C  0.14471935  0.91382463  0.00793349     0.37630
C537        C  0.08140074  0.97923292  0.01501140     0.36060
C538        C  0.06600934  0.84737965  0.12481941     0.36060
N539        N  0.08413089  0.00536150  0.99144659    -0.38760
N540        N  0.05126469  0.81884916  0.14162270    -0.38760
N541        N  0.16976026  0.91315572  0.48092164    -0.38210
N542        N  0.02853639  0.92392654  0.17556100    -0.38210
C543        C  0.95236706  0.95301931  0.07276991    -0.04880
C544        C  0.91755419  0.93834443  0.10245843    -0.01990
C545        C  0.87817209  0.91139695  0.09752539     0.03000
C546        C  0.87653788  0.89455662  0.06452634    -0.04880
C547        C  0.90764755  0.91191845  0.03371992    -0.01980
C548        C  0.94315015  0.94162017  0.03753362     0.02990
C549        C  0.92178639  0.94850084  0.13935052     0.37640
C550        C  0.90378286  0.90021543  0.99707431     0.37630
C551        C  0.96839742  0.96046338  0.00374778     0.36060
C552        C  0.83851071  0.90254223  0.12658209     0.36060
N553        N  0.98460419  0.97360306  0.97466395    -0.38760
N554        N  0.80704030  0.89735885  0.15007640    -0.38760
N555        N  0.90201313  0.89151705  0.96762581    -0.38210
N556        N  0.92070924  0.95333674  0.17016617    -0.38210
C557        C  0.55546434  0.45144979  0.99745883    -0.04880
C558        C  0.54593272  0.42733895  0.47003865    -0.01990
C559        C  0.57822669  0.39488937  0.96759647     0.03000
C560        C  0.62394490  0.38906540  0.98884725    -0.04880
C561        C  0.64030324  0.41771849  0.00900758    -0.01980
C562        C  0.60575358  0.44800101  0.01476713     0.02990
C563        C  0.50233652  0.43498239  0.44462377     0.37640
C564        C  0.69165859  0.41389062  0.02653019     0.37630
C565        C  0.62274785  0.47214789  0.04097773     0.36060
C566        C  0.56257544  0.36618395  0.44524622     0.36060
N567        N  0.64146713  0.48925477  0.06215467    -0.38760
N568        N  0.54995120  0.34309609  0.42771885    -0.38760
N569        N  0.73257042  0.41077064  0.04033007    -0.38210
N570        N  0.46897671  0.44011228  0.42298820    -0.38210
C571        C  0.46399040  0.44427976  0.02703083    -0.04880
C572        C  0.41347139  0.44566078  0.01045186    -0.01990
C573        C  0.37550567  0.41794370  0.02385479     0.03000
C574        C  0.38838872  0.38688614  0.05160178    -0.04880
C575        C  0.43711527  0.38594436  0.06938262    -0.01980
C576        C  0.47428360  0.41493342  0.05786052     0.02990
C577        C  0.40029395  0.47303128  0.47776199     0.37640
C578        C  0.44978650  0.35416790  0.09847709     0.37630
C579        C  0.52272975  0.41445007  0.07856469     0.36060
C580        C  0.32322978  0.42018946  0.00781826     0.36060
N581        N  0.56062645  0.41325410  0.09603119    -0.38760
N582        N  0.28150852  0.42201143  0.99526424    -0.38760
N583        N  0.45987917  0.32879430  0.12163191    -0.38210
N584        N  0.38664700  0.49324921  0.45134560    -0.38210
C585        C  0.37539733  0.58857024  0.02387397    -0.04880
C586        C  0.38524442  0.55889095  0.05384912    -0.01990
C587        C  0.42221478  0.52954283  0.04983385     0.03000
C588        C  0.45234025  0.53116599  0.01640635    -0.04880
C589        C  0.43783506  0.55860242  0.48524751    -0.01980
C590        C  0.39854508  0.58632969  0.48873084     0.02990
C591        C  0.35648792  0.55808502  0.08880530     0.37640
C592        C  0.46112793  0.55768702  0.44867188     0.37630
C593        C  0.38278546  0.61290182  0.45598844     0.36060
C594        C  0.42711225  0.49777931  0.08006421     0.36060
N595        N  0.36977635  0.63331619  0.42952075    -0.38760
N596        N  0.42838375  0.47285400  0.10488946    -0.38760
N597        N  0.47677306  0.55765079  0.41857399    -0.38210
N598        N  0.33366338  0.55706044  0.11674522    -0.38210
C599        C  0.54988057  0.53575811  0.01776590    -0.04880
C600        C  0.57817428  0.55400517  0.48641239    -0.01990
C601        C  0.60623297  0.58822229  0.48835565     0.03000
C602        C  0.61030489  0.60267678  0.02289629    -0.04880
C603        C  0.58899703  0.58001227  0.05540318    -0.01980
C604        C  0.55833240  0.54762334  0.05261649     0.02990
C605        C  0.58098907  0.53641165  0.45287463     0.37640
C606        C  0.59951249  0.58821078  0.09262236     0.37630
C607        C  0.54130947  0.52357941  0.08675256     0.36060
C608        C  0.62951695  0.60838274  0.45428120     0.36060
N609        N  0.53130628  0.50473524  0.11493470    -0.38760
N610        N  0.64797135  0.62428880  0.42695319    -0.38760
N611        N  0.60676677  0.59330515  0.12288034    -0.38210
N612        N  0.58435828  0.52216647  0.42622387    -0.38210
C613        C  0.50404310  0.51003849  0.01453320     0.01030
C614        C  0.50800149  0.47137573  0.51236092     0.01020
C615        C  0.00327499  0.97384590  0.57856296     0.01030
C616        C  0.00488377  0.01037654  0.58858437     0.01020
Zr617      Zr  0.21853393  0.20451727  0.49039562     2.17510
O618        O  0.24093416  0.14908095  0.46051093    -0.50870
O619        O  0.15231131  0.22904587  0.94420737    -0.74080
O620        O  0.15856265  0.14920357  0.51046905    -0.80860
O621        O  0.33708206  0.25977644  0.94625646    -0.82600
O622        O  0.12919919  0.15757273  0.56800688    -0.78230
O623        O  0.28076516  0.21342326  0.93571038    -0.89860
O624        O  0.12768013  0.28888749  0.95362658    -0.75830
O625        O  0.15163327  0.23399398  0.52379660    -0.85320
O626        O  0.23121782  0.27245653  0.97831603    -0.85010
O627        O  0.23251894  0.18042867  0.55561845    -0.71760
O628        O  0.30463724  0.21639591  0.51326157    -0.83900
Zr629      Zr  0.26368181  0.28960223  0.59943889     2.26420
Zr630      Zr  0.16695544  0.21202718  0.58845860     2.06270
Zr631      Zr  0.31477748  0.28448002  0.50215223     2.10050
Zr632      Zr  0.16454614  0.30154311  0.51167891     1.78760
O633        O  0.40849193  0.28365648  0.48736199    -0.92700
O634        O  0.07082829  0.29839367  0.52686790    -0.40510
O635        O  0.24916023  0.31466191  0.53497652    -0.77140
O636        O  0.17697484  0.27993103  0.57692212    -0.95830
O637        O  0.25157863  0.22206739  0.61163795    -0.89130
O638        O  0.33022959  0.26041595  0.56601865    -0.91980
C639        C  0.12711394  0.26093484  0.93478849     1.01770
C640        C  0.32049272  0.23565664  0.92629079     1.14710
C641        C  0.13070137  0.13904808  0.54042306     1.05490
O642        O  0.07456289  0.22964349  0.58877720    -0.94130
O643        O  0.15083307  0.23197088  0.64818376    -0.89880
O644        O  0.20280343  0.28303757  0.65299714    -0.83020
C645        C  0.16647718  0.25904022  0.66506787     1.12130
O646        O  0.35461165  0.13924007  0.55074115    -0.96110
Zr647      Zr  0.31733701  0.19289164  0.57808221     1.88940
O648        O  0.32520709  0.26221764  0.64747210    -0.72750
O649        O  0.15772452  0.15919751  0.64001244    -0.52020
O650        O  0.29613980  0.13222287  0.61722609    -0.96700
O651        O  0.41315132  0.19741190  0.57351819    -0.53910
O652        O  0.34189315  0.20052527  0.64068858    -0.73270
C653        C  0.34477399  0.22874552  0.65898013     0.99070
O654        O  0.25218210  0.34980156  0.62414604    -0.62090
O655        O  0.29634820  0.34379829  0.96015529    -0.56890
O656        O  0.32648040  0.34176147  0.58261443    -0.93580
O657        O  0.36001640  0.33484616  0.52550893    -0.92000
O658        O  0.17913765  0.35886015  0.96611542    -0.92360
O659        O  0.13542970  0.36166496  0.53112584    -0.91140
C660        C  0.35652962  0.35189830  0.55407974     1.17920
H661        H  0.22984573  0.28182666  0.95189421     0.33860
H662        H  0.15072628  0.29227727  0.59064339     0.44710
H663        H  0.36480270  0.26726557  0.57331870     0.38240
H664        H  0.22837807  0.15290486  0.56034241     0.34720
H665        H  0.05583285  0.32341507  0.51539838     0.26500
H666        H  0.11983287  0.15292481  0.64102136     0.32440
H667        H  0.32672238  0.12615534  0.63376108     0.38350
H668        H  0.14463687  0.36468389  0.95407798     0.32810
H669        H  0.33113365  0.35535629  0.95349042     0.31690
H670        H  0.41438798  0.30660652  0.96826550     0.33370
H671        H  0.42691336  0.17236444  0.58592874     0.32340
H672        H  0.15944977  0.36527158  0.55153925     0.36340
H673        H  0.21392120  0.35534020  0.62310742     0.29070
H674        H  0.20780364  0.14070111  0.95048940     0.33300
H675        H  0.37227697  0.12222078  0.57124994     0.36150
H676        H  0.28339393  0.33590061  0.93693622     0.28760
H677        H  0.26018735  0.34376868  0.65105409     0.41630
H678        H  0.06195018  0.22578564  0.56396324     0.31690
H679        H  0.05662486  0.27972761  0.51186642     0.39310
H680        H  0.42305857  0.21559315  0.59044336     0.31160
H681        H  0.17548453  0.13684368  0.63154676     0.31220
H682        H  0.25142745  0.12879809  0.48115323     0.31490
Zr683      Zr  0.75837852  0.19549272  0.61617096     2.17510
O684        O  0.72437843  0.13974584  0.65732916    -0.50870
O685        O  0.81954066  0.21383150  0.66100445    -0.74080
O686        O  0.81513391  0.13711765  0.61639547    -0.80860
O687        O  0.63912754  0.25559219  0.63556021    -0.82600
O688        O  0.85530581  0.14350613  0.55939912    -0.78230
O689        O  0.69407936  0.20979626  0.66439761    -0.89860
O690        O  0.85835350  0.26937923  0.63423913    -0.75830
O691        O  0.83261728  0.22252827  0.58018117    -0.85320
O692        O  0.74889030  0.26383527  0.60815001    -0.85010
O693        O  0.75339310  0.17243070  0.55717114    -0.71760
O694        O  0.67690216  0.21112053  0.58391096    -0.83900
Zr695      Zr  0.73769014  0.28141635  0.97858593     2.26420
Zr696      Zr  0.82614806  0.20101043  0.52096674     2.06270
Zr697      Zr  0.67053556  0.27961789  0.57373705     2.10050
Zr698      Zr  0.82165421  0.29046535  0.57239679     1.78760
O699        O  0.57501742  0.28269077  0.57872959    -0.92700
O700        O  0.91570891  0.29762070  0.56019902    -0.40510
O701        O  0.74318040  0.30595618  0.53698972    -0.77140
O702        O  0.81884089  0.26914513  0.51255228    -0.95830
O703        O  0.74617459  0.21356621  0.48816844    -0.89130
O704        O  0.66442618  0.25624876  0.51579491    -0.91980
C705        C  0.85182217  0.24150152  0.66125403     1.01770
C706        C  0.65387426  0.23265261  0.66449681     1.14710
C707        C  0.84552463  0.12473051  0.59178900     1.05490
O708        O  0.92156319  0.19832313  0.52012087    -0.94130
O709        O  0.86122631  0.22658347  0.96064124    -0.89880
O710        O  0.79995058  0.26544252  0.92976416    -0.83020
C711        C  0.84382484  0.24639776  0.93071285     1.12130
O712        O  0.63906088  0.13029786  0.56327698    -0.96110
Zr713      Zr  0.67306517  0.18835383  0.52535768     1.88940
O714        O  0.67253538  0.26143185  0.93591217    -0.72750
O715        O  0.82032542  0.15398142  0.97863101    -0.52020
O716        O  0.68819015  0.12981539  0.99856161    -0.96700
O717        O  0.57820541  0.19737110  0.53276616    -0.53910
O718        O  0.64506801  0.20258358  0.96170524    -0.73270
C719        C  0.64541101  0.23086136  0.93504422     0.99070
O720        O  0.77294432  0.33869940  0.94008805    -0.62090
O721        O  0.68522905  0.33676539  0.60231836    -0.56890
O722        O  0.67912695  0.33754443  0.97471564    -0.93580
O723        O  0.63846384  0.33399176  0.53142705    -0.92000
O724        O  0.79708093  0.34238223  0.60664734    -0.92360
O725        O  0.85123240  0.35342939  0.54274134    -0.91140
C726        C  0.64806912  0.35055637  0.49811683     1.17920
H727        H  0.74733786  0.27290567  0.63195267     0.33860
H728        H  0.84778098  0.28092448  0.49767377     0.44710
H729        H  0.63169420  0.26456768  0.50380082     0.38240
H730        H  0.75560506  0.14475738  0.56046729     0.34720
H731        H  0.93030040  0.30438941  0.58348109     0.26500
H732        H  0.84795820  0.13470383  0.98690681     0.32440
H733        H  0.65809694  0.12775269  0.98202317     0.38350
H734        H  0.82827568  0.34595339  0.62174706     0.32810
H735        H  0.65241825  0.35217373  0.59845761     0.31690
H736        H  0.56224708  0.27320632  0.55618267     0.33370
H737        H  0.56180383  0.17261544  0.53024899     0.32340
H738        H  0.83421789  0.35735907  0.51803460     0.36340
H739        H  0.76931746  0.35952305  0.95545970     0.29070
H740        H  0.75389603  0.13005413  0.67381520     0.33300
H741        H  0.61489071  0.11845501  0.54725049     0.36150
H742        H  0.68653142  0.32773463  0.62949801     0.28760
H743        H  0.81142620  0.33425118  0.93915247     0.41630
H744        H  0.93183088  0.21409831  0.53905446     0.31690
H745        H  0.92902697  0.27136336  0.55924812     0.39310
H746        H  0.56706451  0.21489826  0.51017081     0.31160
H747        H  0.78731192  0.14086526  0.48497920     0.31220
H748        H  0.71932374  0.11989824  0.64114511     0.31490
Zr749      Zr  0.75474516  0.78948604  0.60149011     2.17510
O750        O  0.73032874  0.84856854  0.62479648    -0.50870
O751        O  0.81277970  0.76498149  0.65290005    -0.74080
O752        O  0.68951977  0.77793049  0.65185012    -0.80860
O753        O  0.85004219  0.84382815  0.53239856    -0.82600
O754        O  0.63947219  0.72707282  0.64263341    -0.78230
O755        O  0.81384391  0.84490362  0.58932218    -0.89860
O756        O  0.85168608  0.71095825  0.63905096    -0.75830
O757        O  0.74781903  0.72130016  0.61140348    -0.85320
O758        O  0.82720573  0.76543755  0.56937807    -0.85010
O759        O  0.67117430  0.77564485  0.57622596    -0.71760
O760        O  0.74495230  0.81660234  0.53712548    -0.83900
Zr761      Zr  0.72717692  0.70970531  0.48819831     2.26420
Zr762      Zr  0.66638665  0.70689730  0.58454941     2.06270
Zr763      Zr  0.81615233  0.79097141  0.50513080     2.10050
Zr764      Zr  0.81979184  0.69763341  0.57917427     1.78760
O765        O  0.80494146  0.84751688  0.95813891    -0.92700
O766        O  0.79934310  0.63732398  0.61907669    -0.40510
O767        O  0.81036242  0.72287170  0.51429897    -0.77140
O768        O  0.73843372  0.68198829  0.55256274    -0.95830
O769        O  0.65514902  0.73364349  0.52067895    -0.89130
O770        O  0.73424834  0.77779817  0.97911660    -0.91980
C771        C  0.84415629  0.73611365  0.66084607     1.01770
C772        C  0.84416380  0.85913077  0.56200689     1.14710
C773        C  0.65236984  0.75376208  0.66098939     1.05490
O774        O  0.67828637  0.65065527  0.63175117    -0.94130
O775        O  0.63149922  0.65446308  0.55597426    -0.89880
O776        O  0.66875390  0.65461359  0.49908416    -0.83020
C777        C  0.63849126  0.63973178  0.52595306     1.12130
O778        O  0.63489659  0.85978203  0.53620073    -0.96110
Zr779      Zr  0.66261986  0.80163875  0.51198965     1.88940
O780        O  0.66004874  0.73205416  0.94160035    -0.72750
O781        O  0.57060552  0.70699447  0.58854263    -0.52020
O782        O  0.56989765  0.79312981  0.52879505    -0.96700
O783        O  0.66872351  0.85961616  0.96576000    -0.53910
O784        O  0.62487339  0.78803671  0.95480079    -0.73270
C785        C  0.62900762  0.76142899  0.93450536     0.99070
O786        O  0.76262734  0.65242164  0.96596181    -0.62090
O787        O  0.91160121  0.78883032  0.49822172    -0.56890
O788        O  0.78475851  0.72358486  0.93325511    -0.93580
O789        O  0.84251229  0.76674776  0.94873167    -0.92000
O790        O  0.91511650  0.70192663  0.57260535    -0.92360
O791        O  0.86359079  0.64483883  0.55449195    -0.91140
C792        C  0.82585697  0.74456181  0.92654880     1.17920
H793        H  0.86033260  0.77313243  0.57851239     0.33860
H794        H  0.73638275  0.65434350  0.55519785     0.44710
H795        H  0.73342630  0.78825709  0.95290285     0.38240
H796        H  0.64263529  0.78631027  0.58931139     0.34720
H797        H  0.83302610  0.62291024  0.62224134     0.26500
H798        H  0.56206056  0.68943680  0.61182314     0.32440
H799        H  0.55230554  0.81763974  0.51868179     0.38350
H800        H  0.92902866  0.68631621  0.59551531     0.32810
H801        H  0.92058768  0.81264395  0.48117742     0.31690
H802        H  0.78486038  0.86596890  0.97100679     0.33370
H803        H  0.63300663  0.86370855  0.95522971     0.32340
H804        H  0.83833595  0.63712693  0.53654056     0.36340
H805        H  0.80124025  0.65585629  0.96524536     0.29070
H806        H  0.72745413  0.84212710  0.65228419     0.33300
H807        H  0.60537406  0.87106365  0.52052377     0.36150
H808        H  0.92552598  0.79267020  0.52272187     0.28760
H809        H  0.75756248  0.63097254  0.48672146     0.41630
H810        H  0.69765653  0.66003010  0.65197226     0.31690
H811        H  0.79164767  0.64461886  0.64388169     0.39310
H812        H  0.69042846  0.85215488  0.94513136     0.31160
H813        H  0.56064770  0.73288769  0.59385166     0.31220
H814        H  0.69394802  0.85423732  0.61615281     0.31490
Zr815      Zr  0.25289688  0.69183746  0.49397656     2.17510
O816        O  0.22984330  0.63219293  0.97241800    -0.50870
O817        O  0.31602711  0.71010844  0.94341334    -0.74080
O818        O  0.18790835  0.70244656  0.94435359    -0.80860
O819        O  0.35575562  0.63889751  0.55809270    -0.82600
O820        O  0.13918221  0.75500607  0.95287939    -0.78230
O821        O  0.30898214  0.63535641  0.50582603    -0.89860
O822        O  0.36347921  0.76143391  0.95462968    -0.75830
O823        O  0.24670303  0.76011801  0.98031572    -0.85320
O824        O  0.32848380  0.71623560  0.51999222    -0.85010
O825        O  0.17159468  0.70719671  0.52322642    -0.71760
O826        O  0.24805809  0.66803651  0.55963842    -0.83900
Zr827      Zr  0.23815244  0.77910904  0.60148549     2.26420
Zr828      Zr  0.16662491  0.77576138  0.51011541     2.06270
Zr829      Zr  0.32354495  0.69362123  0.58509031     2.10050
Zr830      Zr  0.32162177  0.78425877  0.50727181     1.78760
O831        O  0.31659535  0.63741870  0.63302682    -0.92700
O832        O  0.31213236  0.83495637  0.95382166    -0.40510
O833        O  0.31898160  0.76225351  0.57291689    -0.77140
O834        O  0.24167966  0.80234790  0.53563322    -0.95830
O835        O  0.16215671  0.75451004  0.57590609    -0.89130
O836        O  0.24495790  0.71092765  0.61482288    -0.91980
C837        C  0.35308477  0.73462843  0.93582638     1.01770
C838        C  0.34418602  0.62292240  0.52980848     1.14710
C839        C  0.15134498  0.72741382  0.93494884     1.05490
O840        O  0.15958416  0.83097785  0.96074656    -0.94130
O841        O  0.13534788  0.83200800  0.53451634    -0.89880
O842        O  0.17189109  0.83101029  0.59169960    -0.83020
C843        C  0.14148527  0.84571571  0.56489031     1.12130
O844        O  0.12469830  0.63195072  0.57022004    -0.96110
Zr845      Zr  0.16905807  0.68657370  0.58953185     1.88940
O846        O  0.18524227  0.75865842  0.65679877    -0.72750
O847        O  0.07177793  0.76759412  0.51692809    -0.52020
O848        O  0.07472712  0.69970584  0.58723828    -0.96700
O849        O  0.18180896  0.62647590  0.63179003    -0.53910
O850        O  0.14687576  0.70197187  0.65131914    -0.73270
C851        C  0.15620182  0.72987553  0.66929328     0.99070
O852        O  0.27180323  0.83970426  0.61556230    -0.62090
O853        O  0.41935761  0.69454310  0.58629727    -0.56890
O854        O  0.30297068  0.76740919  0.65180317    -0.93580
O855        O  0.35601612  0.71912529  0.63842344    -0.92000
O856        O  0.41434918  0.78211386  0.52352730    -0.92360
O857        O  0.34638567  0.84797544  0.51878296    -0.91140
C858        C  0.34251997  0.74426143  0.65891886     1.17920
H859        H  0.36077494  0.70694516  0.51007495     0.33860
H860        H  0.23916224  0.83005360  0.53138718     0.44710
H861        H  0.24724722  0.70222250  0.64131489     0.38240
H862        H  0.14240572  0.69593485  0.51217694     0.34720
H863        H  0.34818095  0.83932528  0.94348643     0.26500
H864        H  0.05674052  0.78672336  0.49686297     0.32440
H865        H  0.06083453  0.68758229  0.61182137     0.38350
H866        H  0.42936757  0.80622134  0.01014977     0.32810
H867        H  0.42972407  0.66919618  0.60020247     0.31690
H868        H  0.30120965  0.64696471  0.65510062     0.33370
H869        H  0.14870923  0.62286586  0.64654142     0.32340
H870        H  0.34845425  0.84555566  0.54627623     0.36340
H871        H  0.31048061  0.83704126  0.61341004     0.29070
H872        H  0.23167524  0.63738600  0.94482012     0.33300
H873        H  0.09499835  0.62584518  0.58798990     0.36150
H874        H  0.43090221  0.69367238  0.56026336     0.28760
H875        H  0.26262190  0.85914981  0.59383097     0.41630
H876        H  0.19643189  0.83808697  0.95411415     0.31690
H877        H  0.29358315  0.82273741  0.93495203     0.39310
H878        H  0.20817168  0.63242533  0.64981026     0.31160
H879        H  0.06470058  0.74244600  0.50911271     0.31220
H880        H  0.19208713  0.62858248  0.97870806     0.31490
C881        C  0.00541386  0.24694739  0.77556645     0.01030
C882        C  0.99970084  0.26003155  0.80988344     0.01020
C883        C  0.99589267  0.72778325  0.78204778     0.01030
C884        C  0.99477437  0.72885512  0.82006147     0.01020
C885        C  0.49481374  0.75444031  0.77500513     0.01030
C886        C  0.49377506  0.75273463  0.81320204     0.01020
C887        C  0.49108990  0.22562212  0.78025204     0.01030
C888        C  0.48900491  0.22610169  0.81822827     0.01020
C889        C  0.37573123  0.74577505  0.69285222    -0.04880
C890        C  0.40494150  0.71265376  0.70905908    -0.01990
C891        C  0.43997481  0.71449480  0.73851126     0.03000
C892        C  0.44778077  0.74934849  0.75195916    -0.04880
C893        C  0.41466481  0.78105270  0.73919298    -0.01980
C894        C  0.37927600  0.77955383  0.70965455     0.02990
C895        C  0.39880005  0.67563595  0.69679625     0.37640
C896        C  0.41287305  0.81365946  0.75922704     0.37630
C897        C  0.34695894  0.81313900  0.69725927     0.36060
C898        C  0.46300125  0.67923076  0.75776571     0.36060
N899        N  0.32143201  0.84035532  0.68845825    -0.38760
N900        N  0.47861613  0.65002083  0.77284954    -0.38760
N901        N  0.41023188  0.83949979  0.77539848    -0.38210
N902        N  0.39566040  0.64561179  0.68786630    -0.38210
C903        C  0.45064381  0.73158475  0.83843226    -0.04880
C904        C  0.39622265  0.74158195  0.83512719    -0.01990
C905        C  0.36628458  0.74557688  0.86716781     0.03000
C906        C  0.38599926  0.73200137  0.90265172    -0.04880
C907        C  0.43526406  0.71334299  0.90597108    -0.01980
C908        C  0.46664152  0.71184802  0.87381281     0.02990
C909        C  0.36521363  0.73187864  0.80494670     0.37640
C910        C  0.45467864  0.69728691  0.94258803     0.37630
C911        C  0.51677998  0.69180975  0.87783851     0.36060
C912        C  0.31386687  0.76230932  0.86332701     0.36060
N913        N  0.55639701  0.67540814  0.88256658    -0.38760
N914        N  0.27218647  0.77574112  0.85997609    -0.38760
N915        N  0.47023139  0.68454877  0.97177375    -0.38210
N916        N  0.33708393  0.72319276  0.78290369    -0.38210
C917        C  0.04682392  0.72954147  0.76000902    -0.04880
C918        C  0.05971876  0.76353516  0.73532298    -0.01990
C919        C  0.10562942  0.76479193  0.71338145     0.03000
C920        C  0.12831543  0.73029023  0.70568287    -0.04880
C921        C  0.11750515  0.69628889  0.73059069    -0.01980
C922        C  0.08039735  0.69700203  0.76001276     0.02990
C923        C  0.02667648  0.79766644  0.73111560     0.37640
C924        C  0.14571249  0.66105278  0.72684673     0.37630
C925        C  0.07656063  0.66385071  0.78885228     0.36060
C926        C  0.13034013  0.80141490  0.70039439     0.36060
N927        N  0.07538280  0.63650346  0.81104804    -0.38760
N928        N  0.15080988  0.83051877  0.69091223    -0.38760
N929        N  0.16805781  0.63279170  0.72410969    -0.38210
N930        N  0.00296966  0.82620385  0.72603765    -0.38210
C931        C  0.11964049  0.72421151  0.90145296    -0.04880
C932        C  0.08741601  0.69216667  0.90072099    -0.01990
C933        C  0.04897552  0.69280326  0.87281919     0.03000
C934        C  0.04417317  0.72468548  0.84370434    -0.04880
C935        C  0.08171512  0.75460896  0.84226078    -0.01980
C936        C  0.11710490  0.75513655  0.87192948     0.02990
C937        C  0.09086915  0.65953415  0.93040137     0.37640
C938        C  0.08225273  0.78743594  0.81295513     0.37630
C939        C  0.14876354  0.78897642  0.87325416     0.36060
C940        C  0.01414242  0.66025420  0.87512207     0.36060
N941        N  0.17290221  0.81640332  0.87438778    -0.38760
N942        N  0.98828755  0.63311037  0.87838600    -0.38760
N943        N  0.08579882  0.81567445  0.79211206    -0.38210
N944        N  0.09306031  0.63333078  0.95388103    -0.38210
C945        C  0.59690902  0.76610085  0.89973934    -0.04880
C946        C  0.54695484  0.78477000  0.89806418    -0.01990
C947        C  0.51779315  0.78945670  0.86477949     0.03000
C948        C  0.53550770  0.77241639  0.83398699    -0.04880
C949        C  0.59021499  0.76403080  0.83278139    -0.01980
C950        C  0.61888776  0.75682443  0.86621480     0.02990
C951        C  0.52315491  0.79697133  0.93083616     0.37640
C952        C  0.62119357  0.77991358  0.80048587     0.37630
C953        C  0.67326203  0.74400963  0.86462558     0.36060
C954        C  0.46812057  0.81033259  0.86267516     0.36060
N955        N  0.71658264  0.73398498  0.86282086    -0.38760
N956        N  0.42879298  0.82733448  0.86142792    -0.38760
N957        N  0.64825541  0.79333908  0.77613209    -0.38210
N958        N  0.50311675  0.80691234  0.95655561    -0.38210
C959        C  0.62009143  0.75729505  0.69435222    -0.04880
C960        C  0.61628091  0.72593008  0.72335901    -0.01990
C961        C  0.57832048  0.72629767  0.75189278     0.03000
C962        C  0.54408752  0.75840758  0.75185229    -0.04880
C963        C  0.55253669  0.79153717  0.72504575    -0.01980
C964        C  0.58929950  0.79056431  0.69579814     0.02990
C965        C  0.65179517  0.69325498  0.72399104     0.37640
C966        C  0.52715208  0.82771283  0.72891062     0.37630
C967        C  0.59310198  0.82314532  0.66611891     0.36060
C968        C  0.57716428  0.69437737  0.78221081     0.36060
N969        N  0.59524004  0.84921383  0.64249172    -0.38760
N970        N  0.57838188  0.66832208  0.80585734    -0.38760
N971        N  0.50943893  0.85767893  0.73121829    -0.38210
N972        N  0.68016311  0.66719842  0.72495344    -0.38210
C973        C  0.85879709  0.74322044  0.89195748    -0.04880
C974        C  0.89329771  0.77384780  0.88011331    -0.01990
C975        C  0.93837869  0.76825859  0.85876289     0.03000
C976        C  0.94438029  0.73483109  0.84153592    -0.04880
C977        C  0.90371189  0.70704227  0.84753914    -0.01980
C978        C  0.86220893  0.71059530  0.87354316     0.02990
C979        C  0.88197784  0.81206805  0.88888539     0.37640
C980        C  0.90539990  0.67307814  0.82963279     0.37630
C981        C  0.82354279  0.68037850  0.88101190     0.36060
C982        C  0.97769555  0.79804271  0.85563357     0.36060
N983        N  0.79281524  0.65610245  0.88604181    -0.38760
N984        N  0.00606173  0.82349781  0.85556548    -0.38760
N985        N  0.90434062  0.64492504  0.81693451    -0.38210
N986        N  0.87359693  0.84286729  0.89497345    -0.38210
C987        C  0.87491834  0.73174147  0.69700657    -0.04880
C988        C  0.87886675  0.76211677  0.71857255    -0.01990
C989        C  0.91329021  0.75916079  0.74946176     0.03000
C990        C  0.94721080  0.72686816  0.75818915    -0.04880
C991        C  0.93964357  0.69528236  0.73883736    -0.01980
C992        C  0.90239745  0.69706457  0.71001271     0.02990
C993        C  0.84853431  0.79729327  0.70915018     0.37640
C994        C  0.96896322  0.65966299  0.74852272     0.37630
C995        C  0.89202851  0.66210371  0.69482516     0.36060
C996        C  0.91484437  0.79093641  0.77044228     0.36060
N997        N  0.88457580  0.63362321  0.68366206    -0.38760
N998        N  0.91430497  0.81764403  0.78544719    -0.38760
N999        N  0.98942085  0.62988745  0.75482825    -0.38210
N1000       N  0.82449910  0.82551356  0.70227188    -0.38210
C1001       C  0.54144168  0.23062718  0.75712755    -0.04880
C1002       C  0.58207621  0.20238692  0.75930330    -0.01990
C1003       C  0.62068099  0.20346383  0.73033801     0.03000
C1004       C  0.62042144  0.23356419  0.69937294    -0.04880
C1005       C  0.58475043  0.26481110  0.70097775    -0.01980
C1006       C  0.54469416  0.26250260  0.72832739     0.02990
C1007       C  0.58327618  0.17080700  0.78998612     0.37640
C1008       C  0.58833671  0.30051047  0.67500419     0.37630
C1009       C  0.50759823  0.29444563  0.72679702     0.36060
C1010       C  0.65985871  0.17300060  0.73271846     0.36060
N1011       N  0.48038540  0.32127334  0.72410129    -0.38760
N1012       N  0.69098842  0.14852816  0.73544573    -0.38760
N1013       N  0.58886463  0.32952989  0.65514570    -0.38210
N1014       N  0.58570132  0.14490484  0.81377015    -0.38210
C1015       C  0.61058879  0.22749192  0.90202230    -0.04880
C1016       C  0.57294351  0.19746742  0.90403898    -0.01990
C1017       C  0.53949978  0.19478442  0.87394025     0.03000
C1018       C  0.53734037  0.22417548  0.84271920    -0.04880
C1019       C  0.57603394  0.25336294  0.83969088    -0.01980
C1020       C  0.61329184  0.25412465  0.86841914     0.02990
C1021       C  0.56524879  0.16945353  0.93749761     0.37640
C1022       C  0.57692348  0.28458491  0.80869040     0.37630
C1023       C  0.65366956  0.28328091  0.86308950     0.36060
C1024       C  0.50787963  0.16048118  0.87543224     0.36060
N1025       N  0.68553229  0.30675234  0.85843643    -0.38760
N1026       N  0.48491698  0.13200958  0.87809925    -0.38760
N1027       N  0.58012603  0.31099228  0.78550736    -0.38210
N1028       N  0.55759136  0.14681468  0.96363949    -0.38210
C1029       C  0.88860550  0.23863821  0.69317097    -0.04880
C1030       C  0.87099365  0.23607502  0.73055442    -0.01990
C1031       C  0.90756005  0.22921406  0.76030515     0.03000
C1032       C  0.96260356  0.22992893  0.75250960    -0.04880
C1033       C  0.97632163  0.22146570  0.71635694    -0.01980
C1034       C  0.94152017  0.23014844  0.68649129     0.02990
C1035       C  0.81515972  0.23874567  0.73855852     0.37640
C1036       C  0.01963194  0.19568384  0.71116305     0.37630
C1037       C  0.95939263  0.22751812  0.64887917     0.36060
C1038       C  0.88839871  0.20677322  0.79445375     0.36060
N1039       N  0.97244637  0.22586204  0.61855718    -0.38760
N1040       N  0.87158715  0.18789430  0.82082180    -0.38760
N1041       N  0.05243490  0.17408751  0.70569921    -0.38210
N1042       N  0.77058727  0.24088919  0.74491017    -0.38210
C1043       C  0.87809658  0.24668452  0.89592946    -0.04880
C1044       C  0.87232140  0.27495765  0.86362093    -0.01990
C1045       C  0.90821752  0.27642042  0.83305394     0.03000
C1046       C  0.95233234  0.25136070  0.83501176    -0.04880
C1047       C  0.95682879  0.22214520  0.86602497    -0.01980
C1048       C  0.91946113  0.21883664  0.89539516     0.02990
C1049       C  0.83166049  0.30427829  0.86196245     0.37640
C1050       C  0.00112947  0.19549552  0.86838894     0.37630
C1051       C  0.92538230  0.18619602  0.92488553     0.36060
C1052       C  0.90046481  0.30450073  0.79986149     0.36060
N1053       N  0.93201984  0.15994100  0.94781278    -0.38760
N1054       N  0.89326922  0.32685531  0.77349056    -0.38760
N1055       N  0.03603673  0.17393888  0.87161107    -0.38210
N1056       N  0.79996381  0.32831979  0.85997837    -0.38210
C1057       C  0.35238285  0.23469355  0.89095457    -0.04880
C1058       C  0.38358966  0.26706979  0.87735558    -0.01990
C1059       C  0.42886698  0.26326021  0.85564575     0.03000
C1060       C  0.43765106  0.22974109  0.83935901    -0.04880
C1061       C  0.39953071  0.20009896  0.84620958    -0.01980
C1062       C  0.35898766  0.20161062  0.87352716     0.02990
C1063       C  0.36860344  0.30534326  0.88411000     0.37640
C1064       C  0.40272959  0.16704704  0.82698830     0.37630
C1065       C  0.32525061  0.16877587  0.88376394     0.36060
C1066       C  0.46469811  0.29548265  0.84908607     0.36060
N1067       N  0.29874449  0.14216799  0.89124874    -0.38760
N1068       N  0.49096234  0.32243742  0.84490786    -0.38760
N1069       N  0.40381683  0.14004594  0.81241508    -0.38210
N1070       N  0.35816526  0.33657357  0.88784037    -0.38210
C1071       C  0.37380702  0.22267172  0.69531420    -0.04880
C1072       C  0.36556137  0.24787516  0.72178483    -0.01990
C1073       C  0.40168936  0.24878797  0.75091863     0.03000
C1074       C  0.44304178  0.22104765  0.75699174    -0.04880
C1075       C  0.44388038  0.19103293  0.73503715    -0.02240
C1076       C  0.41172819  0.19278498  0.70347324     0.02990
C1077       C  0.31958259  0.27303477  0.71951154     0.37640
C1078       C  0.47806161  0.15775315  0.74451036     0.37630
C1079       C  0.41992846  0.16401038  0.67920769     0.36060
C1080       C  0.39750209  0.28095411  0.77126327     0.36060
N1081       N  0.42725193  0.14073099  0.66037289    -0.38760
N1082       N  0.39142678  0.30825514  0.78500041    -0.38760
N1083       N  0.50354575  0.13017240  0.75118716    -0.38210
N1084       N  0.28287317  0.29291877  0.71823821    -0.38210
C1085       C  0.04397715  0.27885033  0.82932106    -0.04880
C1086       C  0.09549550  0.26349245  0.83181580    -0.01990
C1087       C  0.11750858  0.25171772  0.86720017     0.03000
C1088       C  0.09764603  0.26708893  0.89862444    -0.04880
C1089       C  0.05479215  0.29365054  0.89270880    -0.01980
C1090       C  0.03007944  0.30079866  0.85757221     0.02990
C1091       C  0.13318964  0.28112408  0.80433357     0.37640
C1092       C  0.03380019  0.31255224  0.92258956     0.37630
C1093       C  0.99230098  0.33197402  0.84977447     0.36060
C1094       C  0.16539883  0.22877279  0.86910668     0.36060
N1095       N  0.96308102  0.35758360  0.84401335    -0.38760
N1096       N  0.20347287  0.21033520  0.87018093    -0.38760
N1097       N  0.01617196  0.32798494  0.94592415    -0.38210
N1098       N  0.16407402  0.29567124  0.78319066    -0.38210
C1099       C  0.13789554  0.26269347  0.70015461    -0.04880
C1100       C  0.13777093  0.23122038  0.72932366    -0.01990
C1101       C  0.09674187  0.22728081  0.75617260     0.03000
C1102       C  0.05616137  0.25546063  0.75434320    -0.04880
C1103       C  0.06048043  0.28935757  0.72800745    -0.01980
C1104       C  0.10113928  0.29287500  0.70084681     0.02990
C1105       C  0.17811502  0.20161274  0.73014409     0.37640
C1106       C  0.02140943  0.31969180  0.72750270     0.37630
C1107       C  0.10256234  0.32610716  0.67179536     0.36060
C1108       C  0.09393886  0.19260360  0.78337464     0.36060
N1109       N  0.10361276  0.35262212  0.64860557    -0.38760
N1110       N  0.09263310  0.16427352  0.80423126    -0.38760
N1111       N  0.99072054  0.34429274  0.72678499    -0.38210
N1112       N  0.21036493  0.17807601  0.73069408    -0.38210
C1113       C  0.95299359  0.03086183  0.59411626    -0.04880
C1114       C  0.92208140  0.04469083  0.56289221    -0.01990
C1115       C  0.87661399  0.06637465  0.56726037     0.03000
C1116       C  0.87110461  0.08583069  0.59834627    -0.04880
C1117       C  0.90088025  0.07239130  0.63025215    -0.01980
C1118       C  0.93886673  0.04261406  0.62896216     0.02990
C1119       C  0.94222265  0.04491475  0.52539836     0.37640
C1120       C  0.89479167  0.09046540  0.66332616     0.37630
C1121       C  0.96667603  0.02713697  0.66263425     0.36060
C1122       C  0.83608658  0.06923291  0.53926127     0.36060
N1123       N  0.98862662  0.01495573  0.68972219    -0.38760
N1124       N  0.80317145  0.06980145  0.51746825    -0.38760
N1125       N  0.89002739  0.10505027  0.68968248    -0.38210
N1126       N  0.95835189  0.04814495  0.49512720    -0.38210
C1127       C  0.09928084  0.10283456  0.54736463    -0.04880
C1128       C  0.12328516  0.06628451  0.54683165    -0.01990
C1129       C  0.10146850  0.03268808  0.56882238     0.03000
C1130       C  0.05407729  0.03565372  0.58946986    -0.04880
C1131       C  0.04423333  0.07260929  0.59771991    -0.01980
C1132       C  0.05401613  0.10377971  0.57029307     0.02990
C1133       C  0.17166772  0.06328750  0.52595807     0.37640
C1134       C  0.05240586  0.07912307  0.63559186     0.37630
C1135       C  0.02421084  0.13851264  0.57229086     0.36060
C1136       C  0.13738947  0.00148694  0.58176696     0.36060
N1137       N  0.99918035  0.16553384  0.57490968    -0.38760
N1138       N  0.16711372  0.97717913  0.59220848    -0.38760
N1139       N  0.06016197  0.08478196  0.66563567    -0.38210
N1140       N  0.21309652  0.05962876  0.01292537    -0.38210
C1141       C  0.05033404  0.94778470  0.57738597    -0.04880
C1142       C  0.05636966  0.91730998  0.60727365    -0.01990
C1143       C  0.08097437  0.88281857  0.60148442     0.03000
C1144       C  0.11110063  0.88120072  0.56904331    -0.04880
C1145       C  0.11127717  0.91344809  0.54049683    -0.01980
C1146       C  0.07914567  0.94588190  0.54384194     0.02990
C1147       C  0.03990148  0.92170736  0.64470128     0.37640
C1148       C  0.14384166  0.91315844  0.50738727     0.37630
C1149       C  0.08040326  0.97851770  0.51415824     0.36060
C1150       C  0.06630588  0.84754810  0.62506236     0.36060
N1151       N  0.08310485  0.00450650  0.49044264    -0.38760
N1152       N  0.05169145  0.81911151  0.64211786    -0.38760
N1153       N  0.17078402  0.91390967  0.98152485    -0.38210
N1154       N  0.02955610  0.92472514  0.67527663    -0.38210
C1155       C  0.95204764  0.95330218  0.57246581    -0.04880
C1156       C  0.91759296  0.93845085  0.60230994    -0.01990
C1157       C  0.87817543  0.91148946  0.59748896     0.03000
C1158       C  0.87617181  0.89483727  0.56440028    -0.04880
C1159       C  0.90672444  0.91249724  0.53343644    -0.01980
C1160       C  0.94226288  0.94220025  0.53718412     0.02990
C1161       C  0.92220143  0.94847349  0.63922433     0.37640
C1162       C  0.90215138  0.90113684  0.49669460     0.37630
C1163       C  0.96686208  0.96138412  0.50329956     0.36060
C1164       C  0.83884241  0.90244682  0.62674081     0.36060
N1165       N  0.98249547  0.97478043  0.47413308    -0.38760
N1166       N  0.80760194  0.89713958  0.65038048    -0.38760
N1167       N  0.89984320  0.89271815  0.46715714    -0.38210
N1168       N  0.92138769  0.95317891  0.67007761    -0.38210
C1169       C  0.55551122  0.45146258  0.49740553    -0.04880
C1170       C  0.54589207  0.42730100  0.97011131    -0.01990
C1171       C  0.57824662  0.39492108  0.46751398     0.03000
C1172       C  0.62396130  0.38907660  0.48876498    -0.04880
C1173       C  0.64033086  0.41771054  0.50894591    -0.01980
C1174       C  0.60579389  0.44799380  0.51472002     0.02990
C1175       C  0.50227613  0.43490916  0.94470921     0.37640
C1176       C  0.69168149  0.41386304  0.52647376     0.37630
C1177       C  0.62279318  0.47212217  0.54094648     0.36060
C1178       C  0.56257105  0.36613652  0.94534116     0.36060
N1179       N  0.64151624  0.48921546  0.56213304    -0.38760
N1180       N  0.54995876  0.34303775  0.92782258    -0.38760
N1181       N  0.73258923  0.41073353  0.54027894    -0.38210
N1182       N  0.46889781  0.44000969  0.92308627    -0.38210
C1183       C  0.46402482  0.44428063  0.52696058    -0.04880
C1184       C  0.41351250  0.44567828  0.51036747    -0.01990
C1185       C  0.37552992  0.41796116  0.52374459     0.03000
C1186       C  0.38837960  0.38689162  0.55148846    -0.04880
C1187       C  0.43710280  0.38592965  0.56927951    -0.01980
C1188       C  0.47429275  0.41491194  0.55777616     0.02990
C1189       C  0.40023399  0.47299240  0.97783462     0.37640
C1190       C  0.44974482  0.35414569  0.59837320     0.37630
C1191       C  0.52273514  0.41440277  0.57848852     0.36060
C1192       C  0.32326045  0.42023298  0.50769721     0.36060
N1193       N  0.56063037  0.41319006  0.59595824    -0.38760
N1194       N  0.28154347  0.42207757  0.49513537    -0.38760
N1195       N  0.45981755  0.32876797  0.62152886    -0.38210
N1196       N  0.38657830  0.49319567  0.95141142    -0.38210
C1197       C  0.37545189  0.58851969  0.52387661    -0.04880
C1198       C  0.38531610  0.55884521  0.55384999    -0.01990
C1199       C  0.42230114  0.52951229  0.54982807     0.03000
C1200       C  0.45242655  0.53115634  0.51639946    -0.04880
C1201       C  0.43775514  0.55861116  0.98525073    -0.01980
C1202       C  0.39848962  0.58636180  0.98873047     0.02990
C1203       C  0.35656354  0.55802915  0.58880914     0.37640
C1204       C  0.46103389  0.55767213  0.94867511     0.37630
C1205       C  0.38275710  0.61294069  0.95598623     0.36060
C1206       C  0.42721663  0.49774408  0.58005205     0.36060
N1207       N  0.36976868  0.63336296  0.92951795    -0.38760
N1208       N  0.42850284  0.47281408  0.60487239    -0.38760
N1209       N  0.47667259  0.55761468  0.91857876    -0.38210
N1210       N  0.33374292  0.55699628  0.61675151    -0.38210
C1211       C  0.54996632  0.53576031  0.51775497    -0.04880
C1212       C  0.57808885  0.55399368  0.98642135    -0.01990
C1213       C  0.60614504  0.58821058  0.98835849     0.03000
C1214       C  0.61040177  0.60268069  0.52289690    -0.04880
C1215       C  0.58909539  0.58000822  0.55539972    -0.01980
C1216       C  0.55842357  0.54762174  0.55260772     0.02990
C1217       C  0.58090174  0.53639194  0.95288813     0.37640
C1218       C  0.59962643  0.58819408  0.59262078     0.37630
C1219       C  0.54140107  0.52357444  0.58674148     0.36060
C1220       C  0.62943237  0.60836254  0.95428118     0.36060
N1221       N  0.53140015  0.50472639  0.61492192    -0.38760
N1222       N  0.64788913  0.62426119  0.92695073    -0.38760
N1223       N  0.60689622  0.59327788  0.62287999    -0.38210
N1224       N  0.58426886  0.52213936  0.92624175    -0.38210
loop_ 
_geom_bond_atom_site_label_1 
_geom_bond_atom_site_label_2 
_geom_bond_distance 
_geom_bond_site_symmetry_2 
_ccdc_geom_bond_type 
C1          C614   1.379       .  D
C1         C1200   1.509       .  S
C1         C1211   1.502       .  S
C2          C613   1.379       .  D
C2          C557   1.525   1_554  S
C2          C571   1.515       .  S
C3            C4   1.392   1_565  D
C3          C529   1.504       .  S
C3          C543   1.533   1_455  S
C4          C501   1.521   1_455  S
C4          C518   1.549       .  S
Zr5           O6   2.434       .  S
Zr5           O8   2.498   1_556  S
Zr5         O619   2.451       .  S
Zr5         O623   2.496       .  S
Zr5          O13   2.394   1_556  S
Zr5          O15   2.417   1_556  S
Zr5          O16   2.415   1_556  S
Zr5         O626   2.388       .  S
O6           H70   0.989       .  S
O6          H674   0.990       .  S
O7         Zr617   2.451       .  S
O7           C27   1.288       .  A
O8           C29   1.294       .  A
O9         Zr631   2.384       .  S
O9           C28   1.277       .  A
O10         Zr18   2.379       .  S
O10          C29   1.276       .  A
O11        Zr617   2.497       .  S
O11          C28   1.296       .  A
O12        Zr632   2.425       .  S
O12          C27   1.283       .  A
O13         Zr18   2.391       .  S
O13         Zr20   2.379       .  S
O14        Zr617   2.389       .  S
O14        Zr631   2.378       .  S
O14        Zr632   2.377       .  S
O14          H49   0.966       .  S
O15         Zr18   2.397       .  S
O15         Zr35   2.385       .  S
O15          H52   0.965       .  S
O16         Zr19   2.387       .  S
O16         Zr35   2.395       .  S
Zr17         O42   2.439       .  S
Zr17         O36   2.436       .  S
Zr17         O44   2.449       .  S
Zr17         O32   2.452       .  S
Zr17         O23   2.401       .  S
Zr17         O24   2.408       .  S
Zr17         O25   2.375       .  S
Zr17         O26   2.383       .  S
Zr18         O37   2.438       .  S
Zr18         O30   2.424       .  S
Zr18         O31   2.407       .  S
Zr18         O24   2.381       .  S
Zr18         O25   2.371       .  S
Zr19         O21   2.436   1_554  S
Zr19        O655   2.435   1_554  S
Zr19         O45   2.393       .  S
Zr19        O621   2.384   1_554  S
Zr19         O23   2.372       .  S
Zr19         O26   2.378       .  S
Zr19        O626   2.378   1_554  S
Zr20         O47   2.437       .  S
Zr20         O22   2.439       .  S
Zr20        O658   2.436   1_554  S
Zr20        O624   2.424   1_554  S
Zr20         O23   2.398       .  S
Zr20         O24   2.396       .  S
Zr20        O626   2.377   1_554  S
O21         H670   0.991       .  S
O22          H53   0.989       .  S
O22          H67   0.990       .  S
O24          H50   0.966       .  S
O25         Zr35   2.371       .  S
O26         Zr35   2.378       .  S
O26          H51   0.966       .  S
C27         C476   1.505       .  S
C28         C445   1.512       .  S
C29         C515   1.497       .  S
O30          H66   0.989       .  S
O31          C33   1.280       .  A
O32          C33   1.286       .  A
C33         C487   1.479       .  S
O34         Zr35   2.442       .  S
O34          H63   0.990       .  S
Zr35         O38   2.439       .  S
Zr35         O39   2.445       .  S
Zr35         O40   2.419       .  S
O36          C41   1.285       .  A
O37          H54   0.990       .  S
O37          H69   0.990       .  S
O38          H55   0.990       .  S
O39          H59   0.989       .  S
O39          H68   0.990       .  S
O40          C41   1.281       .  A
C41         C459   1.504       .  S
O42          H61   0.990       .  S
O42          H65   0.990       .  S
O43        Zr631   2.435       .  S
O43          H57   0.990       .  S
O43          H64   0.989       .  S
O44          C48   1.286       .  A
O45          C48   1.277       .  A
O46        Zr632   2.436       .  S
O46          H56   0.990       .  S
O47          H60   0.990       .  S
C48         C574   1.473       .  S
H58         O633   0.991       .  S
H62         O618   0.990       .  S
Zr71         O72   2.437       .  S
Zr71         O73   2.429       .  S
Zr71         O74   2.496       .  S
Zr71         O77   2.482       .  S
Zr71         O79   2.400       .  S
Zr71         O80   2.389       .  S
Zr71         O81   2.409       .  S
Zr71         O82   2.409       .  S
O72         H128   0.990       .  S
O72         H136   0.990       .  S
O73          C93   1.283       .  A
O74          C95   1.295       .  A
O75         Zr85   2.402       .  S
O75          C94   1.280       .  A
O76         Zr84   2.393       .  S
O76          C95   1.280       .  A
O77          C94   1.294       .  A
O78         Zr86   2.446       .  S
O78          C93   1.287       .  A
O79         Zr84   2.393       .  S
O79         Zr86   2.378       .  S
O80         Zr85   2.380       .  S
O80         Zr86   2.365       .  S
O80         H115   0.966       .  S
O81         Zr84   2.395       .  S
O81        Zr101   2.378       .  S
O81         H118   0.965       .  S
O82         Zr85   2.388       .  S
O82        Zr101   2.387       .  S
Zr83        O108   2.443       .  S
Zr83        O102   2.464       .  S
Zr83        O110   2.449       .  S
Zr83         O98   2.484       .  S
Zr83        O701   2.416       .  S
Zr83        O702   2.417       .  S
Zr83        O703   2.372       .  S
Zr83        O704   2.389       .  S
Zr84         O96   2.428       .  S
Zr84        O715   2.430   1_554  S
Zr84        O709   2.408   1_554  S
Zr84         O90   2.378       .  S
Zr84         O91   2.372   1_554  S
Zr85         O87   2.436       .  S
Zr85        O109   2.437       .  S
Zr85        O111   2.405       .  S
Zr85         O89   2.376       .  S
Zr85         O92   2.380       .  S
Zr86        O112   2.436       .  S
Zr86        O113   2.435       .  S
Zr86         O88   2.435       .  S
Zr86         O89   2.400       .  S
Zr86         O90   2.406       .  S
O87         H124   0.990       .  S
O88         H119   0.990       .  S
O88         H133   0.988       .  S
O89        Zr695   2.416   1_554  S
O90        Zr695   2.416   1_554  S
O90         H116   0.966   1_554  S
O91        Zr101   2.381   1_556  S
O91        Zr695   2.372       .  S
O92        Zr101   2.372       .  S
O92        Zr695   2.389   1_554  S
O92         H117   0.966       .  S
C93         C417   1.489       .  S
C94         C392   1.519       .  S
C95         C504   1.496       .  S
O96         H132   0.990       .  S
O97        Zr696   2.407       .  S
O97          C99   1.279       .  A
O98          C99   1.293       .  A
C99         C431   1.522       .  S
O100       Zr101   2.443       .  S
O100        H129   0.990       .  S
Zr101       O105   2.446       .  S
Zr101       O716   2.440   1_554  S
Zr101       O718   2.404   1_554  S
O102        C107   1.291       .  A
O103       Zr696   2.429       .  S
O103        H120   0.988       .  S
O103        H747   0.987       .  S
O104       Zr713   2.440       .  S
O104        H121   0.989       .  S
O105        H125   0.989       .  S
O105        H134   0.990       .  S
O106       Zr713   2.403       .  S
O106        C107   1.277       .  A
C107        C403   1.519       .  S
O108        H127   0.990       .  S
O108        H131   0.990       .  S
O109        H123   0.990       .  S
O109        H130   0.989       .  S
O110        C726   1.286       .  A
O111        C114   1.280   1_554  A
O112        H122   0.990       .  S
O113        H126   0.990       .  S
C114        O722   1.286       .  A
C114        C560   1.475       .  S
H135        O715   0.988       .  S
Zr137       O138   2.435       .  S
Zr137       O139   2.439       .  S
Zr137       O140   2.441       .  S
Zr137       O143   2.460       .  S
Zr137       O145   2.382       .  S
Zr137       O146   2.383       .  S
Zr137       O147   2.410       .  S
Zr137       O148   2.398       .  S
O138        H194   0.990       .  S
O138        H202   0.989       .  S
O139        C159   1.285       .  A
O140        C161   1.285       .  A
O141       Zr151   2.412       .  S
O141        C160   1.280       .  A
O142       Zr150   2.414       .  S
O142        C161   1.281       .  A
O143        C160   1.290       .  A
O144       Zr152   2.443       .  S
O144        C159   1.286       .  A
O145       Zr150   2.393       .  S
O145       Zr152   2.370       .  S
O146       Zr151   2.384       .  S
O146       Zr152   2.370       .  S
O146        H181   0.966       .  S
O147       Zr150   2.398       .  S
O147       Zr167   2.381       .  S
O147        H184   0.966       .  S
O148       Zr151   2.380       .  S
O148       Zr167   2.391       .  S
Zr149       O786   2.444       .  S
Zr149       O164   2.439       .  S
Zr149       O780   2.453       .  S
Zr149       O788   2.449       .  S
Zr149       O155   2.408   1_556  S
Zr149       O156   2.408   1_556  S
Zr149       O157   2.380   1_556  S
Zr149       O770   2.380       .  S
Zr150       O169   2.438       .  S
Zr150       O162   2.430       .  S
Zr150       O163   2.435       .  S
Zr150       O156   2.385       .  S
Zr150       O157   2.383       .  S
Zr151       O175   2.438   1_554  S
Zr151       O765   2.432   1_554  S
Zr151       O789   2.417   1_554  S
Zr151       O155   2.377       .  S
Zr151       O770   2.376   1_554  S
Zr152       O178   2.437       .  S
Zr152       O179   2.437       .  S
Zr152       O154   2.437       .  S
Zr152       O155   2.399       .  S
Zr152       O156   2.400       .  S
O153       Zr763   2.432       .  S
O153        H190   0.990       .  S
O154        H185   0.989       .  S
O154        H199   0.990       .  S
O156        H182   0.966       .  S
O157       Zr167   2.377       .  S
O158       Zr761   2.380       .  S
O158       Zr763   2.376       .  S
O158       Zr779   2.379       .  S
O158        H183   0.966       .  S
C159        C375   1.523       .  S
C160        C546   1.521       .  S
C161        C347   1.474       .  S
O162        H198   0.989       .  S
O163        C165   1.286       .  A
O164        C165   1.284   1_556  A
C165        C602   1.515       .  S
O166       Zr167   2.443       .  S
O166        H195   0.990       .  S
Zr167       O170   2.438       .  S
Zr167       O783   2.440   1_554  S
Zr167       O784   2.412   1_554  S
Zr167       O770   2.379   1_554  S
O168       Zr761   2.453       .  S
O168        C173   1.290       .  A
O169        H186   0.990       .  S
O169        H201   0.990       .  S
O170        H187   0.989       .  S
O171       Zr779   2.440       .  S
O171        H191   0.990       .  S
O171        H200   0.990       .  S
O172       Zr779   2.412       .  S
O172        C173   1.281       .  A
C173        C333   1.498       .  S
O174       Zr761   2.443       .  S
O174        H193   0.990       .  S
O174        H809   0.990       .  S
O175        H189   0.990       .  S
O175        H196   0.990   1_556  S
O176       Zr761   2.449       .  S
O176        C180   1.286       .  A
O177       Zr763   2.417       .  S
O177        C180   1.284       .  A
O178        H188   0.990       .  S
O179        H192   0.990       .  S
C180        C361   1.506       .  S
H197        O786   0.990       .  S
Zr203       O816   2.438       .  S
Zr203       O209   2.422   1_556  S
Zr203       O817   2.436       .  S
Zr203       O818   2.444       .  S
Zr203       O212   2.379   1_556  S
Zr203       O213   2.405   1_556  S
Zr203       O214   2.402   1_556  S
Zr203       O823   2.379       .  S
O204       Zr815   2.438       .  S
O204        H260   0.990       .  S
O204        H268   0.989       .  S
O205       Zr815   2.436       .  S
O205        C225   1.284       .  A
O206       Zr815   2.444       .  S
O206        C227   1.285       .  A
O207       Zr217   2.423       .  S
O207        C226   1.283       .  A
O208       Zr828   2.423       .  S
O208        C227   1.283       .  A
O209        C226   1.282       .  A
O210       Zr830   2.413       .  S
O210        C225   1.279       .  A
O211       Zr815   2.378       .  S
O211       Zr828   2.389       .  S
O211       Zr830   2.384       .  S
O212       Zr217   2.376       .  S
O212       Zr218   2.374       .  S
O212        H247   0.966       .  S
O213       Zr216   2.392       .  S
O213       Zr233   2.403       .  S
O213        H250   0.966       .  S
O214       Zr217   2.387       .  S
O214       Zr233   2.401       .  S
Zr215       O240   2.438       .  S
Zr215       O234   2.421       .  S
Zr215       O242   2.460       .  S
Zr215       O230   2.459       .  S
Zr215       O221   2.399       .  S
Zr215       O222   2.404       .  S
Zr215       O223   2.384       .  S
Zr215       O224   2.381       .  S
Zr216       O235   2.437       .  S
Zr216       O840   2.432   1_554  S
Zr216       O229   2.415       .  S
Zr216       O820   2.424   1_554  S
Zr216       O222   2.395       .  S
Zr216       O223   2.391       .  S
Zr216       O823   2.390   1_554  S
Zr217       O219   2.432       .  S
Zr217       O241   2.438       .  S
Zr217       O243   2.414       .  S
Zr217       O221   2.392       .  S
Zr217       O224   2.376       .  S
Zr218       O244   2.436       .  S
Zr218       O245   2.437       .  S
Zr218       O832   2.438   1_554  S
Zr218       O822   2.413   1_554  S
Zr218       O221   2.389       .  S
Zr218       O222   2.390       .  S
Zr218       O823   2.384   1_554  S
O219        H256   0.989       .  S
O220       Zr830   2.438       .  S
O220        H251   0.990       .  S
O220        H265   0.990       .  S
O222        H248   0.966       .  S
O223       Zr233   2.373       .  S
O224       Zr233   2.373       .  S
O224        H249   0.965       .  S
C225        C294   1.471       .  S
C226        C585   1.483       .  S
C227        C319   1.487       .  S
O228       Zr828   2.432       .  S
O228        H264   0.990       .  S
O229        C231   1.282       .  A
O230        C231   1.291       .  A
C231        C532   1.488       .  S
O232       Zr233   2.440       .  S
O232        H261   0.990       .  S
Zr233       O236   2.437       .  S
Zr233       O237   2.436       .  S
Zr233       O238   2.443       .  S
O234        C239   1.283       .  A
O235        H252   0.990   1_554  S
O235        H267   0.990       .  S
O236        H253   0.990       .  S
O237        H257   0.990       .  S
O237        H266   0.989       .  S
O238        C239   1.286       .  A
C239        C308   1.492       .  S
O240        H259   0.990       .  S
O240        H263   0.990       .  S
O241        H255   0.990       .  S
O241        H262   0.990       .  S
O242        C246   1.290       .  A
O243        C246   1.282       .  A
O244        H866   0.989       .  S
O245        H258   0.990       .  S
C246        C277   1.510       .  S
H254        O856   0.989       .  S
C269        C270   1.398   1_455  D
C269        C420   1.562   1_455  S
C269        C490   1.503       .  S
C270        C434   1.506       .  S
C270        C473   1.545   1_655  S
C271        C272   1.385       .  D
C271        C305   1.510   1_655  S
C271        C378   1.523       .  S
C272        C322   1.523   1_655  S
C272        C364   1.520       .  S
C273        C274   1.378       .  D
C273        C280   1.497       .  S
C273        C350   1.495       .  S
C274        C291   1.542       .  S
C274        C336   1.541       .  S
C275        C276   1.381       .  D
C275        C389   1.518       .  S
C275        C462   1.518       .  S
C276        C406   1.521       .  S
C276        C448   1.520       .  S
C277        C278   1.428       .  A
C277        C282   1.422       .  A
C278        C279   1.410       .  A
C278        C283   1.452       .  S
C279        C280   1.406       .  A
C279        C286   1.449       .  S
C280        C281   1.414       .  A
C281        C282   1.416       .  A
C281        C284   1.451       .  S
C282        C285   1.449       .  S
C283        N290   1.157       .  T
C284        N289   1.157       .  T
C285        N287   1.157       .  T
C286        N288   1.157       .  T
C291        C292   1.426       .  A
C291        C296   1.424       .  A
C292        C293   1.405       .  A
C292        C297   1.443       .  S
C293        C294   1.400       .  A
C293        C300   1.451       .  S
C294        C295   1.406       .  A
C295        C296   1.412       .  A
C295        C298   1.452       .  S
C296        C299   1.448       .  S
C297        N304   1.158       .  T
C298        N303   1.157       .  T
C299        N301   1.157       .  T
C300        N302   1.156       .  T
C305        C306   1.420       .  A
C305        C310   1.421       .  A
C306        C307   1.401       .  A
C306        C311   1.448       .  S
C307        C308   1.404       .  A
C307        C314   1.451       .  S
C308        C309   1.412       .  A
C309        C310   1.418       .  A
C309        C312   1.450       .  S
C310        C313   1.446       .  S
C311        N318   1.157       .  T
C312        N317   1.157       .  T
C313        N315   1.157       .  T
C314        N316   1.158       .  T
C319        C320   1.407       .  A
C319        C324   1.407       .  A
C320        C321   1.414       .  A
C320        C325   1.452       .  S
C321        C322   1.424       .  A
C321        C328   1.449       .  S
C322        C323   1.425       .  A
C323        C324   1.415       .  A
C323        C326   1.446       .  S
C324        C327   1.454       .  S
C325        N332   1.157       .  T
C326        N331   1.157       .  T
C327        N329   1.157       .  T
C328        N330   1.157   1_455  T
C333        C334   1.421       .  A
C333        C338   1.413       .  A
C334        C335   1.412       .  A
C334        C339   1.448       .  S
C335        C336   1.413       .  A
C335        C342   1.451       .  S
C336        C337   1.420       .  A
C337        C338   1.411       .  A
C337        C340   1.446       .  S
C338        C341   1.452       .  S
C339        N346   1.156       .  T
C340        N345   1.158       .  T
C341        N343   1.157       .  T
C342        N344   1.157       .  T
C347        C348   1.407       .  A
C347        C352   1.409       .  A
C348        C349   1.407       .  A
C348        C353   1.452       .  S
C349        C350   1.419       .  A
C349        C356   1.447       .  S
C350        C351   1.416       .  A
C351        C352   1.409       .  A
C351        C354   1.447       .  S
C352        C355   1.451       .  S
C353        N360   1.157       .  T
C354        N359   1.157       .  T
C355        N357   1.157       .  T
C356        N358   1.156       .  T
C361        C362   1.410       .  A
C361        C366   1.417       .  A
C362        C363   1.404       .  A
C362        C367   1.455       .  S
C363        C364   1.421       .  A
C363        C370   1.449       .  S
C364        C365   1.424       .  A
C365        C366   1.423       .  A
C365        C368   1.447       .  S
C366        C369   1.450       .  S
C367        N374   1.157       .  T
C368        N373   1.157       .  T
C369        N371   1.157       .  T
C370        N372   1.157   1_655  T
C375        C376   1.425       .  A
C375        C380   1.419       .  A
C376        C377   1.422       .  A
C376        C381   1.450       .  S
C377        C378   1.418       .  A
C377        C384   1.448       .  S
C378        C379   1.420       .  A
C379        C380   1.414       .  A
C379        C382   1.450       .  S
C380        C383   1.453       .  S
C381        N388   1.156       .  T
C382        N387   1.157       .  T
C383        N385   1.157       .  T
C384        N386   1.157       .  T
C389        C390   1.420       .  A
C389        C394   1.414       .  A
C390        C391   1.425       .  A
C390        C395   1.448       .  S
C391        C392   1.421       .  A
C391        C398   1.449       .  S
C392        C393   1.425       .  A
C393        C394   1.407       .  A
C393        C396   1.454       .  S
C394        C397   1.454       .  S
C395        N402   1.157       .  T
C396        N401   1.157       .  T
C397        N399   1.157       .  T
C398        N400   1.157       .  T
C403        C404   1.428       .  A
C403        C408   1.421       .  A
C404        C405   1.408       .  A
C404        C409   1.454       .  S
C405        C406   1.413       .  A
C405        C412   1.453       .  S
C406        C407   1.423       .  A
C407        C408   1.421       .  A
C407        C410   1.447       .  S
C408        C411   1.451       .  S
C409        N416   1.157       .  T
C410        N415   1.157       .  T
C411        N413   1.157       .  T
C412        N414   1.157       .  T
C417        C418   1.412       .  A
C417        C422   1.401       .  A
C418        C419   1.424       .  A
C418        C423   1.450       .  S
C419        C420   1.424       .  A
C419        C426   1.445       .  S
C420        C421   1.427       .  A
C421        C422   1.404       .  A
C421        C424   1.448   1_655  S
C422        C425   1.449       .  S
C423        N430   1.157       .  T
C424        N429   1.158       .  T
C425        N427   1.155       .  T
C426        N428   1.158       .  T
C431        C432   1.425       .  A
C431        C436   1.431       .  A
C432        C433   1.422       .  A
C432        C437   1.448       .  S
C433        C434   1.415       .  A
C433        C440   1.450       .  S
C434        C435   1.408       .  A
C435        C436   1.410       .  A
C435        C438   1.453   1_655  S
C436        C439   1.453       .  S
C437        N444   1.157       .  T
C438        N443   1.156       .  T
C439        N441   1.157       .  T
C440        N442   1.157       .  T
C445        C446   1.419       .  A
C445        C450   1.416       .  A
C446        C447   1.403       .  A
C446        C451   1.453       .  S
C447        C448   1.414       .  A
C447        C454   1.453       .  S
C448        C449   1.425       .  A
C449        C450   1.427       .  A
C449        C452   1.447       .  S
C450        C453   1.447       .  S
C451        N458   1.156       .  T
C452        N457   1.157       .  T
C453        N455   1.157       .  T
C454        N456   1.157       .  T
C459        C460   1.417       .  A
C459        C464   1.419       .  A
C460        C461   1.414       .  A
C460        C465   1.454       .  S
C461        C462   1.423       .  A
C461        C468   1.447       .  S
C462        C463   1.418       .  A
C463        C464   1.409       .  A
C463        C466   1.452       .  S
C464        C467   1.453       .  S
C465        N472   1.157       .  T
C466        N471   1.157       .  T
C467        N469   1.157       .  T
C468        N470   1.157       .  T
C473        C474   1.410       .  A
C473        C478   1.415       .  A
C474        C475   1.408       .  A
C474        C479   1.448       .  S
C475        C476   1.420       .  A
C475        C482   1.450       .  S
C476        C477   1.424       .  A
C477        C478   1.415       .  A
C477        C480   1.450       .  S
C478        C481   1.447   1_455  S
C479        N486   1.158       .  T
C480        N485   1.157       .  T
C481        N483   1.157       .  T
C482        N484   1.157       .  T
C487        C488   1.410       .  A
C487        C492   1.410       .  A
C488        C489   1.411       .  A
C488        C493   1.451       .  S
C489        C490   1.418       .  A
C489        C496   1.449       .  S
C490        C491   1.414       .  A
C491        C492   1.412       .  A
C491        C494   1.449       .  S
C492        C495   1.450       .  S
C493        N500   1.157       .  T
C494        N499   1.157   1_455  T
C495        N497   1.157       .  T
C496        N498   1.156       .  T
C501        C502   1.409       .  A
C501        C506   1.429       .  A
C502        C503   1.399       .  A
C502        C507   1.446       .  S
C503        C504   1.411       .  A
C503        C510   1.449       .  S
C504        C505   1.409       .  A
C505        C506   1.423       .  A
C505        C508   1.448       .  S
C506        C509   1.449       .  S
C507        N514   1.157   1_554  T
C508        N513   1.157       .  T
C509        N511   1.158       .  T
C510        N512   1.157       .  T
C515        C516   1.421       .  A
C515        C520   1.413       .  A
C516        C517   1.435       .  A
C516        C521   1.447       .  S
C517        C518   1.422       .  A
C517        C524   1.446       .  S
C518        C519   1.401       .  A
C519        C520   1.386       .  A
C519        C522   1.446       .  S
C520        C523   1.443       .  S
C521       N1140   1.157       .  T
C522        N527   1.158       .  T
C523        N525   1.154   1_455  T
C524        N526   1.158   1_545  T
N528       C1133   1.157       .  T
C529        C530   1.412       .  A
C529        C534   1.422       .  A
C530        C531   1.403       .  A
C530        C535   1.446       .  S
C531        C532   1.404       .  A
C531        C538   1.446       .  S
C532        C533   1.415       .  A
C533        C534   1.417       .  A
C533        C536   1.451       .  S
C534        C537   1.450       .  S
C535        N542   1.157       .  T
C536       N1153   1.157   1_554  T
C537        N539   1.158   1_564  T
C538        N540   1.156       .  T
N541       C1148   1.157       .  T
C543        C544   1.423       .  A
C543        C548   1.421       .  A
C544        C545   1.420       .  A
C544        C549   1.443       .  S
C545        C546   1.417       .  A
C545        C552   1.450       .  S
C546        C547   1.424       .  A
C547        C548   1.414       .  A
C547        C550   1.456   1_554  S
C548        C551   1.447       .  S
C549        N556   1.156       .  T
C550        N555   1.157       .  T
C551        N553   1.158   1_554  T
C552        N554   1.156       .  T
C557        C562   1.428   1_556  A
C557       C1170   1.428       .  A
C558       C1169   1.428       .  A
C558       C1171   1.413       .  A
C558        C563   1.448       .  S
C559        C560   1.399       .  A
C559       C1170   1.413       .  A
C559       C1178   1.451       .  S
C560        C561   1.404   1_556  A
C561        C562   1.412       .  A
C561        C564   1.456       .  S
C562        C565   1.443       .  S
C563        N570   1.157       .  T
C564        N569   1.157       .  T
C565        N567   1.157       .  T
C566       C1171   1.451       .  S
C566        N568   1.158       .  T
C571        C572   1.423       .  A
C571        C576   1.426       .  A
C572        C573   1.409       .  A
C572       C1189   1.447   1_554  S
C573        C574   1.407       .  A
C573        C580   1.455       .  S
C574        C575   1.402       .  A
C575        C576   1.412       .  A
C575        C578   1.452       .  S
C576        C579   1.450       .  S
C577       C1184   1.447       .  S
C577        N584   1.157       .  T
C578        N583   1.157       .  T
C579        N581   1.157       .  T
C580        N582   1.157   1_554  T
C585        C586   1.411       .  A
C585       C1202   1.409   1_554  A
C586        C587   1.412       .  A
C586        C591   1.452       .  S
C587        C588   1.420       .  A
C587        C594   1.447       .  S
C588        C613   1.509       .  S
C588       C1201   1.420   1_554  A
C589        C590   1.407       .  A
C589       C1200   1.420       .  A
C589        C592   1.451       .  S
C590       C1197   1.409       .  A
C590        C593   1.452       .  S
C591        N598   1.157       .  T
C592        N597   1.157       .  T
C593        N595   1.157       .  T
C594        N596   1.158       .  T
C599        C613   1.502       .  S
C599        C604   1.411       .  A
C599       C1212   1.409   1_554  A
C600        C601   1.420       .  A
C600       C1211   1.409       .  A
C600        C605   1.449       .  S
C601       C1214   1.429       .  A
C601        C608   1.450       .  S
C602        C603   1.423       .  A
C602       C1213   1.429   1_554  A
C603        C604   1.407       .  A
C603        C606   1.452       .  S
C604        C607   1.453       .  S
C605        N612   1.158       .  T
C606        N611   1.157       .  T
C607        N609   1.157       .  T
C608        N610   1.158       .  T
C614       C1169   1.525       .  S
C614       C1183   1.515       .  S
C615        C616   1.391   1_565  D
C615       C1141   1.504       .  S
C615       C1155   1.533   1_455  S
C616       C1113   1.522   1_455  S
C616       C1130   1.548       .  S
Zr617       O618   2.434       .  S
Zr617       O620   2.502       .  S
Zr617       O625   2.394       .  S
Zr617       O627   2.417       .  S
Zr617       O628   2.416       .  S
O618        H682   0.989       .  S
O619        C639   1.288       .  A
O620        C641   1.295       .  A
O621        C640   1.277       .  A
O622       Zr630   2.378       .  S
O622        C641   1.276       .  A
O623        C640   1.296       .  A
O624        C639   1.282       .  A
O625       Zr630   2.390       .  S
O625       Zr632   2.379       .  S
O626        H661   0.966       .  S
O627       Zr630   2.397       .  S
O627       Zr647   2.385       .  S
O627        H664   0.965       .  S
O628       Zr631   2.387       .  S
O628       Zr647   2.395       .  S
Zr629       O654   2.439       .  S
Zr629       O648   2.436       .  S
Zr629       O656   2.449       .  S
Zr629       O644   2.452       .  S
Zr629       O635   2.401       .  S
Zr629       O636   2.408       .  S
Zr629       O637   2.375       .  S
Zr629       O638   2.383       .  S
Zr630       O649   2.438       .  S
Zr630       O642   2.423       .  S
Zr630       O643   2.407       .  S
Zr630       O636   2.380       .  S
Zr630       O637   2.371       .  S
Zr631       O633   2.436       .  S
Zr631       O657   2.393       .  S
Zr631       O635   2.372       .  S
Zr631       O638   2.378       .  S
Zr632       O659   2.437       .  S
Zr632       O634   2.439       .  S
Zr632       O635   2.398       .  S
Zr632       O636   2.396       .  S
O634        H665   0.989       .  S
O634        H679   0.990       .  S
O636        H662   0.966       .  S
O637       Zr647   2.371       .  S
O638       Zr647   2.378       .  S
O638        H663   0.966       .  S
C639       C1088   1.505       .  S
C640       C1057   1.512       .  S
C641       C1127   1.500       .  S
O642        H678   0.989       .  S
O643        C645   1.280       .  A
O644        C645   1.286       .  A
C645       C1099   1.479       .  S
O646       Zr647   2.442       .  S
O646        H675   0.990       .  S
Zr647       O650   2.439       .  S
Zr647       O651   2.445       .  S
Zr647       O652   2.419       .  S
O648        C653   1.285       .  A
O649        H666   0.990       .  S
O649        H681   0.990       .  S
O650        H667   0.990       .  S
O651        H671   0.989       .  S
O651        H680   0.990       .  S
O652        C653   1.281       .  A
C653       C1071   1.505       .  S
O654        H673   0.990       .  S
O654        H677   0.990       .  S
O655        H669   0.990       .  S
O655        H676   0.989       .  S
O656        C660   1.286       .  A
O657        C660   1.277       .  A
O658        H668   0.990       .  S
O659        H672   0.990       .  S
C660       C1186   1.473       .  S
Zr683       O684   2.437       .  S
Zr683       O685   2.428       .  S
Zr683       O686   2.497       .  S
Zr683       O689   2.482       .  S
Zr683       O691   2.402       .  S
Zr683       O692   2.390       .  S
Zr683       O693   2.409       .  S
Zr683       O694   2.409       .  S
O684        H740   0.990       .  S
O684        H748   0.990       .  S
O685        C705   1.283       .  A
O686        C707   1.295       .  A
O687       Zr697   2.402       .  S
O687        C706   1.280       .  A
O688       Zr696   2.392       .  S
O688        C707   1.279       .  A
O689        C706   1.294       .  A
O690       Zr698   2.446       .  S
O690        C705   1.287       .  A
O691       Zr696   2.394       .  S
O691       Zr698   2.380       .  S
O692       Zr697   2.380       .  S
O692       Zr698   2.364       .  S
O692        H727   0.966       .  S
O693       Zr696   2.395       .  S
O693       Zr713   2.378       .  S
O693        H730   0.965       .  S
O694       Zr697   2.388       .  S
O694       Zr713   2.387       .  S
Zr695       O720   2.443       .  S
Zr695       O714   2.464       .  S
Zr695       O722   2.449       .  S
Zr695       O710   2.484       .  S
Zr696       O708   2.427       .  S
Zr696       O702   2.378       .  S
Zr696       O703   2.372       .  S
Zr697       O699   2.436       .  S
Zr697       O721   2.437       .  S
Zr697       O723   2.404       .  S
Zr697       O701   2.376       .  S
Zr697       O704   2.380       .  S
Zr698       O724   2.435       .  S
Zr698       O725   2.435       .  S
Zr698       O700   2.435       .  S
Zr698       O701   2.399       .  S
Zr698       O702   2.406       .  S
O699        H736   0.990       .  S
O700        H731   0.990       .  S
O700        H745   0.987       .  S
O702        H728   0.966       .  S
O703       Zr713   2.381       .  S
O704       Zr713   2.371       .  S
O704        H729   0.966       .  S
C705       C1029   1.489       .  S
C706       C1004   1.519       .  S
C707       C1116   1.497       .  S
O708        H744   0.987       .  S
O709        C711   1.278       .  A
O710        C711   1.293       .  A
C711       C1043   1.523       .  S
O712       Zr713   2.443       .  S
O712        H741   0.990       .  S
Zr713       O717   2.446       .  S
O714        C719   1.291       .  A
O715        H732   0.988       .  S
O716        H733   0.989       .  S
O717        H737   0.989       .  S
O717        H746   0.990       .  S
O718        C719   1.277       .  A
C719       C1015   1.519       .  S
O720        H739   0.990       .  S
O720        H743   0.990       .  S
O721        H735   0.990       .  S
O721        H742   0.989       .  S
O723        C726   1.280       .  A
O724        H734   0.990       .  S
O725        H738   0.990       .  S
C726       C1172   1.475       .  S
Zr749       O750   2.435       .  S
Zr749       O751   2.439       .  S
Zr749       O752   2.441       .  S
Zr749       O755   2.460       .  S
Zr749       O757   2.382       .  S
Zr749       O758   2.383       .  S
Zr749       O759   2.410       .  S
Zr749       O760   2.398       .  S
O750        H806   0.990       .  S
O750        H814   0.989       .  S
O751        C771   1.285       .  A
O752        C773   1.285       .  A
O753       Zr763   2.412       .  S
O753        C772   1.280       .  A
O754       Zr762   2.413       .  S
O754        C773   1.281       .  A
O755        C772   1.290       .  A
O756       Zr764   2.443       .  S
O756        C771   1.286       .  A
O757       Zr762   2.393       .  S
O757       Zr764   2.370       .  S
O758       Zr763   2.385       .  S
O758       Zr764   2.370       .  S
O758        H793   0.966       .  S
O759       Zr762   2.399       .  S
O759       Zr779   2.381       .  S
O759        H796   0.965       .  S
O760       Zr763   2.381       .  S
O760       Zr779   2.391       .  S
Zr761       O776   2.439       .  S
Zr761       O767   2.408       .  S
Zr761       O768   2.408       .  S
Zr761       O769   2.380       .  S
Zr762       O781   2.438       .  S
Zr762       O774   2.430       .  S
Zr762       O775   2.435       .  S
Zr762       O768   2.385       .  S
Zr762       O769   2.383       .  S
Zr763       O787   2.438       .  S
Zr763       O767   2.377       .  S
Zr764       O790   2.437       .  S
Zr764       O791   2.437       .  S
Zr764       O766   2.437       .  S
Zr764       O767   2.399       .  S
Zr764       O768   2.400       .  S
O765        H802   0.990       .  S
O766        H797   0.989       .  S
O766        H811   0.990       .  S
O768        H794   0.966       .  S
O769       Zr779   2.377       .  S
O770        H795   0.966       .  S
C771        C987   1.523       .  S
C772       C1158   1.521       .  S
C773        C959   1.474       .  S
O774        H810   0.989       .  S
O775        C777   1.286       .  A
O776        C777   1.284       .  A
C777       C1214   1.515       .  S
O778       Zr779   2.443       .  S
O778        H807   0.990       .  S
Zr779       O782   2.438       .  S
O780        C785   1.290       .  A
O781        H798   0.990       .  S
O781        H813   0.990       .  S
O782        H799   0.989       .  S
O783        H803   0.990       .  S
O783        H812   0.990       .  S
O784        C785   1.281       .  A
C785        C945   1.498       .  S
O786        H805   0.990       .  S
O787        H801   0.990       .  S
O787        H808   0.990       .  S
O788        C792   1.286       .  A
O789        C792   1.284       .  A
O790        H800   0.990       .  S
O791        H804   0.990       .  S
C792        C973   1.506       .  S
Zr815       O821   2.421       .  S
Zr815       O824   2.380       .  S
Zr815       O825   2.405       .  S
Zr815       O826   2.403       .  S
O816        H872   0.990       .  S
O816        H880   0.989       .  S
O817        C837   1.284       .  A
O818        C839   1.285       .  A
O819       Zr829   2.422       .  S
O819        C838   1.283       .  A
O820        C839   1.283       .  A
O821        C838   1.282       .  A
O822        C837   1.279       .  A
O824       Zr829   2.376       .  S
O824       Zr830   2.374       .  S
O824        H859   0.966       .  S
O825       Zr828   2.391       .  S
O825       Zr845   2.404       .  S
O825        H862   0.966       .  S
O826       Zr829   2.386       .  S
O826       Zr845   2.401       .  S
Zr827       O852   2.438       .  S
Zr827       O846   2.421       .  S
Zr827       O854   2.460       .  S
Zr827       O842   2.460       .  S
Zr827       O833   2.399       .  S
Zr827       O834   2.404       .  S
Zr827       O835   2.384       .  S
Zr827       O836   2.381       .  S
Zr828       O847   2.437       .  S
Zr828       O841   2.414       .  S
Zr828       O834   2.395       .  S
Zr828       O835   2.391       .  S
Zr829       O831   2.432       .  S
Zr829       O853   2.438       .  S
Zr829       O855   2.414       .  S
Zr829       O833   2.392       .  S
Zr829       O836   2.376       .  S
Zr830       O856   2.436       .  S
Zr830       O857   2.437       .  S
Zr830       O833   2.389       .  S
Zr830       O834   2.390       .  S
O831        H868   0.989       .  S
O832        H863   0.990       .  S
O832        H877   0.990       .  S
O834        H860   0.966       .  S
O835       Zr845   2.373       .  S
O836       Zr845   2.373       .  S
O836        H861   0.965       .  S
C837        C906   1.471       .  S
C838       C1197   1.483       .  S
C839        C931   1.487       .  S
O840        H876   0.990       .  S
O841        C843   1.281       .  A
O842        C843   1.291       .  A
C843       C1144   1.488       .  S
O844       Zr845   2.440       .  S
O844        H873   0.990       .  S
Zr845       O848   2.438       .  S
Zr845       O849   2.436       .  S
Zr845       O850   2.443       .  S
O846        C851   1.283       .  A
O847        H864   0.990       .  S
O847        H879   0.990       .  S
O848        H865   0.990       .  S
O849        H869   0.990       .  S
O849        H878   0.989       .  S
O850        C851   1.286       .  A
C851        C920   1.492       .  S
O852        H871   0.990       .  S
O852        H875   0.990       .  S
O853        H867   0.990       .  S
O853        H874   0.990       .  S
O854        C858   1.290       .  A
O855        C858   1.282       .  A
O857        H870   0.990       .  S
C858        C889   1.510       .  S
C881        C882   1.398   1_455  D
C881       C1032   1.562   1_455  S
C881       C1102   1.503       .  S
C882       C1046   1.506       .  S
C882       C1085   1.545   1_655  S
C883        C884   1.385       .  D
C883        C917   1.510   1_655  S
C883        C990   1.524       .  S
C884        C934   1.523   1_655  S
C884        C976   1.520       .  S
C885        C886   1.378       .  D
C885        C892   1.497       .  S
C885        C962   1.495       .  S
C886        C903   1.542       .  S
C886        C948   1.541       .  S
C887        C888   1.381       .  D
C887       C1001   1.518       .  S
C887       C1074   1.518       .  S
C888       C1018   1.521       .  S
C888       C1060   1.519       .  S
C889        C890   1.428       .  A
C889        C894   1.422       .  A
C890        C891   1.410       .  A
C890        C895   1.452       .  S
C891        C892   1.406       .  A
C891        C898   1.449       .  S
C892        C893   1.414       .  A
C893        C894   1.416       .  A
C893        C896   1.451       .  S
C894        C897   1.449       .  S
C895        N902   1.157       .  T
C896        N901   1.157       .  T
C897        N899   1.157       .  T
C898        N900   1.157       .  T
C903        C904   1.426       .  A
C903        C908   1.424       .  A
C904        C905   1.405       .  A
C904        C909   1.443       .  S
C905        C906   1.400       .  A
C905        C912   1.451       .  S
C906        C907   1.406       .  A
C907        C908   1.412       .  A
C907        C910   1.452       .  S
C908        C911   1.448       .  S
C909        N916   1.158       .  T
C910        N915   1.157       .  T
C911        N913   1.157       .  T
C912        N914   1.156       .  T
C917        C918   1.420       .  A
C917        C922   1.421       .  A
C918        C919   1.401       .  A
C918        C923   1.448       .  S
C919        C920   1.404       .  A
C919        C926   1.451       .  S
C920        C921   1.412       .  A
C921        C922   1.418       .  A
C921        C924   1.450       .  S
C922        C925   1.446       .  S
C923        N930   1.157       .  T
C924        N929   1.157       .  T
C925        N927   1.157       .  T
C926        N928   1.158       .  T
C931        C932   1.407       .  A
C931        C936   1.407       .  A
C932        C933   1.414       .  A
C932        C937   1.452       .  S
C933        C934   1.424       .  A
C933        C940   1.449       .  S
C934        C935   1.425       .  A
C935        C936   1.415       .  A
C935        C938   1.446       .  S
C936        C939   1.454       .  S
C937        N944   1.157       .  T
C938        N943   1.157       .  T
C939        N941   1.157       .  T
C940        N942   1.157   1_455  T
C945        C946   1.421       .  A
C945        C950   1.413       .  A
C946        C947   1.412       .  A
C946        C951   1.448       .  S
C947        C948   1.413       .  A
C947        C954   1.451       .  S
C948        C949   1.420       .  A
C949        C950   1.411       .  A
C949        C952   1.446       .  S
C950        C953   1.452       .  S
C951        N958   1.156       .  T
C952        N957   1.158       .  T
C953        N955   1.157       .  T
C954        N956   1.157       .  T
C959        C960   1.407       .  A
C959        C964   1.409       .  A
C960        C961   1.407       .  A
C960        C965   1.452       .  S
C961        C962   1.419       .  A
C961        C968   1.447       .  S
C962        C963   1.416       .  A
C963        C964   1.409       .  A
C963        C966   1.447       .  S
C964        C967   1.451       .  S
C965        N972   1.157       .  T
C966        N971   1.157       .  T
C967        N969   1.157       .  T
C968        N970   1.156       .  T
C973        C974   1.410       .  A
C973        C978   1.417       .  A
C974        C975   1.404       .  A
C974        C979   1.455       .  S
C975        C976   1.421       .  A
C975        C982   1.449       .  S
C976        C977   1.424       .  A
C977        C978   1.423       .  A
C977        C980   1.447       .  S
C978        C981   1.450       .  S
C979        N986   1.157       .  T
C980        N985   1.157       .  T
C981        N983   1.157       .  T
C982        N984   1.157   1_655  T
C987        C988   1.425       .  A
C987        C992   1.419       .  A
C988        C989   1.422       .  A
C988        C993   1.450       .  S
C989        C990   1.418       .  A
C989        C996   1.448       .  S
C990        C991   1.420       .  A
C991        C992   1.414       .  A
C991        C994   1.450       .  S
C992        C995   1.453       .  S
C993       N1000   1.156       .  T
C994        N999   1.157       .  T
C995        N997   1.157       .  T
C996        N998   1.157       .  T
C1001      C1002   1.420       .  A
C1001      C1006   1.414       .  A
C1002      C1003   1.425       .  A
C1002      C1007   1.448       .  S
C1003      C1004   1.421       .  A
C1003      C1010   1.449       .  S
C1004      C1005   1.425       .  A
C1005      C1006   1.407       .  A
C1005      C1008   1.454       .  S
C1006      C1009   1.455       .  S
C1007      N1014   1.157       .  T
C1008      N1013   1.157       .  T
C1009      N1011   1.157       .  T
C1010      N1012   1.157       .  T
C1015      C1016   1.428       .  A
C1015      C1020   1.421       .  A
C1016      C1017   1.408       .  A
C1016      C1021   1.454       .  S
C1017      C1018   1.413       .  A
C1017      C1024   1.453       .  S
C1018      C1019   1.423       .  A
C1019      C1020   1.421       .  A
C1019      C1022   1.447       .  S
C1020      C1023   1.451       .  S
C1021      N1028   1.157       .  T
C1022      N1027   1.157       .  T
C1023      N1025   1.157       .  T
C1024      N1026   1.157       .  T
C1029      C1030   1.412       .  A
C1029      C1034   1.401       .  A
C1030      C1031   1.425       .  A
C1030      C1035   1.450       .  S
C1031      C1032   1.424       .  A
C1031      C1038   1.445       .  S
C1032      C1033   1.427       .  A
C1033      C1034   1.403       .  A
C1033      C1036   1.448   1_655  S
C1034      C1037   1.449       .  S
C1035      N1042   1.157       .  T
C1036      N1041   1.158       .  T
C1037      N1039   1.155       .  T
C1038      N1040   1.158       .  T
C1043      C1044   1.425       .  A
C1043      C1048   1.432       .  A
C1044      C1045   1.422       .  A
C1044      C1049   1.448       .  S
C1045      C1046   1.415       .  A
C1045      C1052   1.450       .  S
C1046      C1047   1.408       .  A
C1047      C1048   1.410       .  A
C1047      C1050   1.453   1_655  S
C1048      C1051   1.453       .  S
C1049      N1056   1.157       .  T
C1050      N1055   1.156       .  T
C1051      N1053   1.157       .  T
C1052      N1054   1.157       .  T
C1057      C1058   1.419       .  A
C1057      C1062   1.416       .  A
C1058      C1059   1.403       .  A
C1058      C1063   1.453       .  S
C1059      C1060   1.414       .  A
C1059      C1066   1.453       .  S
C1060      C1061   1.425       .  A
C1061      C1062   1.427       .  A
C1061      C1064   1.447       .  S
C1062      C1065   1.448       .  S
C1063      N1070   1.156       .  T
C1064      N1069   1.157       .  T
C1065      N1067   1.157       .  T
C1066      N1068   1.157       .  T
C1071      C1072   1.417       .  A
C1071      C1076   1.419       .  A
C1072      C1073   1.414       .  A
C1072      C1077   1.454       .  S
C1073      C1074   1.423       .  A
C1073      C1080   1.447       .  S
C1074      C1075   1.418       .  A
C1075      C1076   1.409       .  A
C1075      C1078   1.452       .  S
C1076      C1079   1.453       .  S
C1077      N1084   1.157       .  T
C1078      N1083   1.157       .  T
C1079      N1081   1.157       .  T
C1080      N1082   1.157       .  T
C1085      C1086   1.410       .  A
C1085      C1090   1.414       .  A
C1086      C1087   1.408       .  A
C1086      C1091   1.448       .  S
C1087      C1088   1.420       .  A
C1087      C1094   1.450       .  S
C1088      C1089   1.424       .  A
C1089      C1090   1.415       .  A
C1089      C1092   1.450       .  S
C1090      C1093   1.448   1_455  S
C1091      N1098   1.158       .  T
C1092      N1097   1.157       .  T
C1093      N1095   1.157       .  T
C1094      N1096   1.157       .  T
C1099      C1100   1.410       .  A
C1099      C1104   1.410       .  A
C1100      C1101   1.411       .  A
C1100      C1105   1.451       .  S
C1101      C1102   1.418       .  A
C1101      C1108   1.449       .  S
C1102      C1103   1.414       .  A
C1103      C1104   1.412       .  A
C1103      C1106   1.449       .  S
C1104      C1107   1.450       .  S
C1105      N1112   1.157       .  T
C1106      N1111   1.157   1_455  T
C1107      N1109   1.157       .  T
C1108      N1110   1.156       .  T
C1113      C1114   1.408       .  A
C1113      C1118   1.430       .  A
C1114      C1115   1.399       .  A
C1114      C1119   1.446       .  S
C1115      C1116   1.412       .  A
C1115      C1122   1.448       .  S
C1116      C1117   1.408       .  A
C1117      C1118   1.423       .  A
C1117      C1120   1.448       .  S
C1118      C1121   1.449       .  S
C1119      N1126   1.157       .  T
C1120      N1125   1.157       .  T
C1121      N1123   1.158       .  T
C1122      N1124   1.157       .  T
C1127      C1128   1.421       .  A
C1127      C1132   1.414       .  A
C1128      C1129   1.435       .  A
C1128      C1133   1.447       .  S
C1129      C1130   1.422       .  A
C1129      C1136   1.446       .  S
C1130      C1131   1.399       .  A
C1131      C1132   1.386       .  A
C1131      C1134   1.445       .  S
C1132      C1135   1.442       .  S
C1134      N1139   1.158       .  T
C1135      N1137   1.154   1_455  T
C1136      N1138   1.158   1_545  T
C1141      C1142   1.412       .  A
C1141      C1146   1.422       .  A
C1142      C1143   1.403       .  A
C1142      C1147   1.446       .  S
C1143      C1144   1.404       .  A
C1143      C1150   1.446       .  S
C1144      C1145   1.415       .  A
C1145      C1146   1.416       .  A
C1145      C1148   1.451       .  S
C1146      C1149   1.450       .  S
C1147      N1154   1.157       .  T
C1149      N1151   1.158   1_565  T
C1150      N1152   1.156       .  T
C1155      C1156   1.423       .  A
C1155      C1160   1.421       .  A
C1156      C1157   1.420       .  A
C1156      C1161   1.443       .  S
C1157      C1158   1.417       .  A
C1157      C1164   1.450       .  S
C1158      C1159   1.423       .  A
C1159      C1160   1.414       .  A
C1159      C1162   1.456       .  S
C1160      C1163   1.447       .  S
C1161      N1168   1.156       .  T
C1162      N1167   1.157       .  T
C1163      N1165   1.158       .  T
C1164      N1166   1.156       .  T
C1169      C1174   1.428       .  A
C1170      C1175   1.448       .  S
C1171      C1172   1.399       .  A
C1172      C1173   1.404       .  A
C1173      C1174   1.412       .  A
C1173      C1176   1.456       .  S
C1174      C1177   1.443       .  S
C1175      N1182   1.157       .  T
C1176      N1181   1.157       .  T
C1177      N1179   1.157       .  T
C1178      N1180   1.158       .  T
C1183      C1184   1.423       .  A
C1183      C1188   1.426       .  A
C1184      C1185   1.409       .  A
C1185      C1186   1.407       .  A
C1185      C1192   1.455       .  S
C1186      C1187   1.402       .  A
C1187      C1188   1.412       .  A
C1187      C1190   1.452       .  S
C1188      C1191   1.450       .  S
C1189      N1196   1.157       .  T
C1190      N1195   1.157       .  T
C1191      N1193   1.157       .  T
C1192      N1194   1.157       .  T
C1197      C1198   1.410       .  A
C1198      C1199   1.412       .  A
C1198      C1203   1.452       .  S
C1199      C1200   1.420       .  A
C1199      C1206   1.447       .  S
C1201      C1202   1.407       .  A
C1201      C1204   1.451       .  S
C1202      C1205   1.452       .  S
C1203      N1210   1.157       .  T
C1204      N1209   1.157       .  T
C1205      N1207   1.157       .  T
C1206      N1208   1.158       .  T
C1211      C1216   1.411       .  A
C1212      C1213   1.420       .  A
C1212      C1217   1.449       .  S
C1213      C1220   1.450       .  S
C1214      C1215   1.423       .  A
C1215      C1216   1.407       .  A
C1215      C1218   1.452       .  S
C1216      C1219   1.453       .  S
C1217      N1224   1.158       .  T
C1218      N1223   1.157       .  T
C1219      N1221   1.157       .  T
C1220      N1222   1.158       .  T
