geometry optimzed in LAMMPS
_audit_creation_date              2020-11-30 
_audit_creation_method            'lammps2cif' 
_symmetry_space_group_name_H-M    'P1' 
_symmetry_Int_Tables_number       1 
_symmetry_cell_setting            triclinic 
loop_ 
_symmetry_equiv_pos_as_xyz 
  x,y,z 
_cell_length_a                    25.63379076346817 
_cell_length_b                    25.799834825120513 
_cell_length_c                    35.770823627600855 
_cell_angle_alpha                 89.98210501316005 
_cell_angle_beta                  90.23042423202217 
_cell_angle_gamma                 89.87381657941887 
loop_ 
_atom_site_label 
_atom_site_type_symbol 
_atom_site_fract_x 
_atom_site_fract_y 
_atom_site_fract_z 
_atom_site_charge 
In1        In  0.89992440  0.37633131  0.59239916     1.36870
C2          C  0.90050155  0.31537937  0.65255962     0.77030
O3          O  0.97398924  0.33638670  0.57748970    -0.61410
O4          O  0.97468352  0.41709131  0.59058551    -0.52320
C5          C  0.87421021  0.37264211  0.52057969     0.69700
O6          O  0.85415172  0.33956018  0.54265234    -0.47180
C7          C  0.87277257  0.46873941  0.61369590     0.74400
O8          O  0.91756869  0.30108631  0.62114198    -0.59040
O9          O  0.91435487  0.44629589  0.62354415    -0.49130
O10         O  0.87658478  0.35811594  0.65128145    -0.55470
C11         C  0.00000111  0.37720276  0.58192312     0.84580
O12         O  0.90125182  0.40671233  0.53626812    -0.57360
O13         O  0.83908770  0.44045451  0.59739065    -0.60660
C14         C  0.79475656  0.37884455  0.81856927    -0.03040
C15         C  0.63796567  0.21405698  0.81907758    -0.03040
C16         C  0.75094887  0.11586910  0.68798065    -0.03040
C17         C  0.90854653  0.28193783  0.68805582    -0.03040
In18       In  0.64694786  0.11101924  0.91030581     1.36870
C19         C  0.64531973  0.17773074  0.85272145     0.77030
O20         O  0.71007193  0.04786600  0.91218493    -0.61410
O21         O  0.64652937  0.04186557  0.87448133    -0.52320
C22         C  0.66873779  0.11788098  0.98281028     0.69700
O23         O  0.69012279  0.14924835  0.96013174    -0.47180
C24         C  0.54595233  0.10994773  0.92188957     0.74400
O25         O  0.67866539  0.18175993  0.87898247    -0.59040
O26         O  0.57143659  0.07011416  0.91312916    -0.49130
O27         O  0.61718231  0.13825347  0.85546618    -0.55470
C28         C  0.68293953  0.01911765  0.89125229     0.84580
O29         O  0.63952365  0.08474030  0.96782330    -0.57360
O30         O  0.57259758  0.15031017  0.92740244    -0.60660
In31       In  0.64343715  0.12530820  0.59999751     1.36870
C32         C  0.71245822  0.12202378  0.65581169     0.77030
O33         O  0.58115686  0.18610911  0.60890039    -0.61410
O34         O  0.57521612  0.11148158  0.63453610    -0.52320
C35         C  0.65289388  0.15850906  0.53001453     0.69700
O36         O  0.69231806  0.15554197  0.55111299    -0.47180
C37         C  0.63409223  0.02702633  0.58319397     0.74400
O38         O  0.68856062  0.16376611  0.64768843    -0.59040
O39         O  0.59788436  0.05218086  0.59844114    -0.49130
O40         O  0.70186631  0.08503531  0.63453088    -0.55470
C41         C  0.55295459  0.15317829  0.62550636     0.84580
O42         O  0.61010195  0.15184125  0.54619900    -0.57360
O43         O  0.67299788  0.05314472  0.57314475    -0.60660
In44       In  0.89748976  0.35690405  0.90929332     1.36870
C45         C  0.82646997  0.36707406  0.85460732     0.77030
O46         O  0.86932312  0.43001798  0.93568701    -0.61410
O47         O  0.94299451  0.42930028  0.90812574    -0.52320
C48         C  0.89130049  0.33013232  0.98105190     0.69700
O49         O  0.85230065  0.32301255  0.95974683    -0.47180
C50         C  0.99061613  0.33059931  0.88268559     0.74400
O51         O  0.84360712  0.40305092  0.87450058    -0.59040
O52         O  0.96364461  0.36751111  0.87020170    -0.49130
O53         O  0.84037771  0.32214323  0.86608275    -0.55470
C54         C  0.90800497  0.45524158  0.92403280     0.84580
O55         O  0.93212186  0.34346595  0.96444364    -0.57360
O56         O  0.96546682  0.29907097  0.90287671    -0.60660
C57         C  0.80324970  0.38007927  0.18772734    -0.03040
C58         C  0.64506447  0.22253426  0.18557584    -0.03040
C59         C  0.74419241  0.12207214  0.32430546    -0.03040
C60         C  0.90718649  0.27469601  0.31915908    -0.03040
In61       In  0.65755770  0.11603234  0.09719811     1.36870
C62         C  0.65604886  0.18441921  0.15302846     0.77030
O63         O  0.58338230  0.15841058  0.08398316    -0.61410
O64         O  0.58160487  0.07689720  0.09372036    -0.52320
C65         C  0.67201993  0.11829793  0.02390853     0.69700
O66         O  0.69655989  0.15034440  0.04451174    -0.47180
C67         C  0.69138849  0.02544897  0.12039791     0.74400
O68         O  0.68355231  0.19225340  0.12410079    -0.59040
O69         O  0.65383002  0.04923885  0.13468896    -0.49130
O70         O  0.63788404  0.13946322  0.15402064    -0.55470
C71         C  0.55658113  0.11773706  0.08696517     0.84580
O72         O  0.64545423  0.08536592  0.04130051    -0.57360
O73         O  0.72017761  0.05261092  0.09937958    -0.60660
In74       In  0.89557016  0.38185801  0.40723613     1.36870
C75         C  0.90000038  0.31312791  0.35138955     0.77030
O76         O  0.83391267  0.44595776  0.40685524    -0.61410
O77         O  0.89900545  0.45059442  0.37059728    -0.52320
C78         C  0.87307210  0.37361160  0.47944214     0.69700
O79         O  0.85795484  0.33813439  0.45727349    -0.47180
C80         C  0.99608843  0.38579129  0.41960597     0.74400
O81         O  0.85655184  0.32741315  0.36523171    -0.59040
O82         O  0.97032465  0.42453800  0.40838410    -0.49130
O83         O  0.93852858  0.33422981  0.36634827    -0.55470
C84         C  0.86193166  0.47399777  0.38618783     0.84580
O85         O  0.89440285  0.41151404  0.46380638    -0.57360
O86         O  0.96980018  0.34595302  0.42743654    -0.60660
In87       In  0.89883802  0.36516261  0.09271163     1.36870
C88         C  0.83467570  0.37150620  0.15161441     0.77030
O89         O  0.96608981  0.30767120  0.09894907    -0.61410
O90         O  0.96819542  0.38006879  0.12735983    -0.52320
C91         C  0.89127196  0.33236783  0.02221593     0.69700
O92         O  0.85225050  0.32803824  0.04373069    -0.47180
C93         C  0.90545955  0.46301460  0.07446283     0.74400
O94         O  0.84560979  0.40834420  0.13025609    -0.59040
O95         O  0.94328956  0.43779309  0.08763091    -0.49130
O96         O  0.85260780  0.32800404  0.14060691    -0.55470
C97         C  0.99319515  0.34125270  0.11592310     0.84580
O98         O  0.93228087  0.34687139  0.03817844    -0.57360
O99         O  0.86480255  0.43724400  0.06754827    -0.60660
In100      In  0.64692793  0.12838853  0.41883743     1.36870
C101        C  0.70969716  0.12718730  0.35896826     0.77030
O102        O  0.68550605  0.05660767  0.44062231    -0.61410
O103        O  0.60426108  0.05502998  0.42758372    -0.52320
C104        C  0.65437284  0.15926880  0.48911151     0.69700
O105        O  0.69513182  0.15403041  0.46954579    -0.47180
C106        C  0.55484982  0.15854305  0.39431221     0.74400
O107        O  0.70310674  0.16819879  0.37821837    -0.59040
O108        O  0.57550917  0.11555796  0.38672235    -0.49130
O109        O  0.68424857  0.08925889  0.37090283    -0.55470
C110        C  0.64459623  0.03011565  0.43666158     0.84580
O111        O  0.61228959  0.15602474  0.47127581    -0.57360
O112        O  0.58435662  0.19062056  0.41072928    -0.60660
C113        C  0.91111401  0.71995319  0.68725882    -0.03040
C114        C  0.75263592  0.88452198  0.68848277    -0.03040
C115        C  0.64692159  0.77782238  0.81786218    -0.03040
C116        C  0.80624635  0.61337045  0.81890076    -0.03040
In117      In  0.89801980  0.62003912  0.59489106     1.36870
C118        C  0.90167721  0.68652322  0.65217980     0.77030
O119        O  0.83748629  0.55489623  0.60141678    -0.61410
O120        O  0.91556658  0.54673952  0.62107432    -0.52320
C121        C  0.87467908  0.62556029  0.52320874     0.69700
O122        O  0.85776759  0.66080964  0.54474828    -0.47180
C123        C  0.99858127  0.61550532  0.58579861     0.74400
O124        O  0.93640602  0.68113539  0.62807042    -0.59040
O125        O  0.97355910  0.58071647  0.60261810    -0.49130
O126        O  0.85979687  0.66226812  0.64431577    -0.55470
C127        C  0.87291954  0.52517772  0.61396369     0.84580
O128        O  0.89716935  0.58868656  0.53924187    -0.57360
O129        O  0.97185349  0.65210888  0.57204329    -0.60660
In130      In  0.64545749  0.87258761  0.59869600     1.36870
C131        C  0.71507275  0.87787843  0.65517753     0.77030
O132        O  0.67367343  0.94552543  0.57235108    -0.61410
O133        O  0.59955621  0.94553585  0.59928628    -0.52320
C134        C  0.65343337  0.84404163  0.52754305     0.69700
O135        O  0.69267980  0.84053754  0.54902029    -0.47180
C136        C  0.55385872  0.84112408  0.62107298     0.74400
O137        O  0.69442487  0.83510826  0.64529496    -0.59040
O138        O  0.57573667  0.88162392  0.63261644    -0.49130
O139        O  0.70137899  0.91535193  0.63515525    -0.55470
C140        C  0.63468084  0.97114161  0.58323631     0.84580
O141        O  0.61157577  0.85516743  0.54367482    -0.57360
O142        O  0.58311921  0.80992311  0.60363949    -0.60660
In143      In  0.65193354  0.86920563  0.91481234     1.36870
C144        C  0.65674814  0.80609347  0.85554346     0.77030
O145        O  0.57619266  0.83034530  0.92704872    -0.61410
O146        O  0.57633610  0.91028055  0.91214524    -0.52320
C147        C  0.67830886  0.86512076  0.98645214     0.69700
O148        O  0.69981921  0.83360983  0.96395083    -0.47180
C149        C  0.68112211  0.96257700  0.89384204     0.74400
O150        O  0.63725713  0.79202278  0.88618878    -0.59040
O151        O  0.64001734  0.94044286  0.88323289    -0.49130
O152        O  0.67987728  0.84905925  0.85796027    -0.55470
C153        C  0.55023759  0.87057562  0.91976978     0.84580
O154        O  0.64734180  0.89663892  0.97154900    -0.57360
O155        O  0.71272894  0.93417244  0.91207346    -0.60660
In156      In  0.90591416  0.61066541  0.91196733     1.36870
C157        C  0.83904173  0.61855622  0.85482790     0.77030
O158        O  0.96952966  0.67079950  0.90871022    -0.61410
O159        O  0.97861663  0.59619219  0.88284094    -0.52320
C160        C  0.90107809  0.64341488  0.98136767     0.69700
O161        O  0.86428806  0.65475268  0.95904285    -0.47180
C162        C  0.90894561  0.51080051  0.92337718     0.74400
O163        O  0.82856022  0.59524178  0.88459892    -0.59040
O164        O  0.94431363  0.53463526  0.90651271    -0.49130
O165        O  0.88291916  0.64039135  0.85612558    -0.55470
C166        C  0.99977097  0.63746438  0.89413868     0.84580
O167        O  0.93948462  0.62124800  0.96689424    -0.57360
O168        O  0.87235753  0.53818580  0.93584810    -0.60660
C169        C  0.90572585  0.71456684  0.31636223    -0.03040
C170        C  0.75086816  0.88733384  0.32513313    -0.03040
C171        C  0.80365383  0.61444391  0.18233216    -0.03040
C172        C  0.64422699  0.78175046  0.19440626    -0.03040
In173      In  0.90532355  0.61672045  0.09171318     1.36870
C174        C  0.83795866  0.61687686  0.14775599     0.77030
O175        O  0.86655356  0.54608095  0.06849935    -0.61410
O176        O  0.94681998  0.54275886  0.08425122    -0.52320
C177        C  0.90022361  0.64691680  0.02192167     0.69700
O178        O  0.85945541  0.64838926  0.04176025    -0.47180
C179        C  0.99667574  0.64508112  0.11791590     0.74400
O180        O  0.84382965  0.65584829  0.12661850    -0.59040
O181        O  0.97377333  0.60430402  0.12768216    -0.49130
O182        O  0.86695985  0.57943953  0.13950452    -0.55470
C183        C  0.90673125  0.51880881  0.07378785     0.84580
O184        O  0.94189668  0.63792004  0.03930180    -0.57360
O185        O  0.96859066  0.67750006  0.10046241    -0.60660
In186      In  0.65856850  0.87644860  0.09864422     1.36870
C187        C  0.65349981  0.81505627  0.15878343     0.77030
O188        O  0.72034816  0.93983326  0.10235299    -0.61410
O189        O  0.64880056  0.94705586  0.13194774    -0.52320
C190        C  0.68301722  0.86746110  0.02731412     0.69700
O191        O  0.69567937  0.83094693  0.04947651    -0.47180
C192        C  0.55842147  0.87829084  0.08336926     0.74400
O193        O  0.69683858  0.83327106  0.14757596    -0.59040
O194        O  0.58273077  0.91766377  0.09499436    -0.49130
O195        O  0.61693910  0.82396185  0.13640736    -0.55470
C196        C  0.68957647  0.96881667  0.12037178     0.84580
O197        O  0.66578262  0.90746774  0.04286703    -0.57360
O198        O  0.58597670  0.83866994  0.07719546    -0.60660
In199      In  0.89851230  0.62168148  0.41115637     1.36870
C200        C  0.89914671  0.68427551  0.35265344     0.77030
O201        O  0.97303177  0.66337551  0.42378027    -0.61410
O202        O  0.97421446  0.58156889  0.41559308    -0.52320
C203        C  0.87658999  0.62616437  0.48245523     0.69700
O204        O  0.85390398  0.65772808  0.46039561    -0.47180
C205        C  0.86338170  0.53068818  0.38809117     0.74400
O206        O  0.87576799  0.69880496  0.38216788    -0.59040
O207        O  0.90231535  0.55324716  0.37484724    -0.49130
O208        O  0.91609267  0.63886004  0.35429293    -0.55470
C209        C  0.99965392  0.62249950  0.42050060     0.84580
O210        O  0.90626270  0.59362252  0.46723823    -0.57360
O211        O  0.83520701  0.55862344  0.40905008    -0.60660
In212      In  0.64930246  0.87640949  0.41626453     1.36870
C213        C  0.71613162  0.88159032  0.35979286     0.77030
O214        O  0.58795182  0.81340780  0.40638642    -0.61410
O215        O  0.58298367  0.88526190  0.37765091    -0.52320
C216        C  0.65441880  0.84485601  0.48652982     0.69700
O217        O  0.69507271  0.84416554  0.46643766    -0.47180
C218        C  0.64518351  0.97412263  0.43591027     0.74400
O219        O  0.71542435  0.84273184  0.38182265    -0.59040
O220        O  0.60529563  0.94891100  0.42658423    -0.49130
O221        O  0.68281027  0.91568428  0.36732385    -0.55470
C222        C  0.56049192  0.84408845  0.38690247     0.84580
O223        O  0.61278447  0.85479225  0.46924990    -0.57360
O224        O  0.68664813  0.94818307  0.43885457    -0.60660
In225      In  0.15520650  0.38071966  0.59121465     1.36870
C226        C  0.15099517  0.31417153  0.64794292     0.77030
O227        O  0.21872513  0.44290829  0.59264710    -0.61410
O228        O  0.15378174  0.44701924  0.62913064    -0.52320
C229        C  0.17379147  0.37808712  0.51902167     0.69700
O230        O  0.19575729  0.34473693  0.54012518    -0.47180
C231        C  0.05570187  0.37830641  0.58050995     0.74400
O232        O  0.18286505  0.30862483  0.62097018    -0.59040
O233        O  0.07993557  0.41972729  0.58686421    -0.49130
O234        O  0.12569447  0.35571820  0.64592093    -0.55470
C235        C  0.19096556  0.47034270  0.61409073     0.84580
O236        O  0.14668890  0.41163526  0.53550794    -0.57360
O237        O  0.08299684  0.33805735  0.57613518    -0.60660
C238        C  0.29892606  0.11375242  0.68100756    -0.03040
C239        C  0.14449493  0.27874480  0.68246482    -0.03040
C240        C  0.40211582  0.21443565  0.81534551    -0.03040
C241        C  0.24791447  0.38165814  0.81749860    -0.03040
In242      In  0.38931259  0.11264433  0.90629422     1.36870
C243        C  0.39355117  0.17828772  0.84867467     0.77030
O244        O  0.46254501  0.14981213  0.92765425    -0.61410
O245        O  0.46463860  0.07086121  0.90975970    -0.52320
C246        C  0.36673512  0.11997724  0.97829348     0.69700
O247        O  0.35425559  0.15719154  0.95673545    -0.47180
C248        C  0.36117672  0.02012611  0.88446749     0.74400
O249        O  0.34954238  0.16379457  0.86145643    -0.59040
O250        O  0.39992254  0.04382501  0.87164058    -0.49130
O251        O  0.43161267  0.15987087  0.86605715    -0.55470
C252        C  0.48955023  0.10982728  0.92125100     0.84580
O253        O  0.38313285  0.08021021  0.96198612    -0.57360
O254        O  0.32909428  0.04786029  0.90233943    -0.60660
In255      In  0.13922017  0.37077213  0.90689445     1.36870
C256        C  0.20954981  0.37531537  0.85102561     0.77030
O257        O  0.07938854  0.30531190  0.89936548    -0.61410
O258        O  0.06773542  0.37784211  0.87242656    -0.52320
C259        C  0.14225123  0.34203420  0.97724616     0.69700
O260        O  0.18111447  0.33273961  0.95641486    -0.47180
C261        C  0.14274423  0.46746891  0.93039542     0.74400
O262        O  0.21399315  0.34433457  0.87844218    -0.59040
O263        O  0.10156054  0.44665245  0.91863335    -0.49130
O264        O  0.16704174  0.39975174  0.85187403    -0.55470
C265        C  0.04802751  0.33544183  0.88247851     0.84580
O266        O  0.10200666  0.35790498  0.96063925    -0.57360
O267        O  0.18227250  0.43865683  0.93087160    -0.60660
In268      In  0.40744718  0.12746090  0.59515031     1.36870
C269        C  0.33873741  0.12178105  0.65015013     0.77030
O270        O  0.37115413  0.05646536  0.57127071    -0.61410
O271        O  0.45185869  0.05476856  0.58630113    -0.52320
C272        C  0.40073371  0.15890638  0.52476033     0.69700
O273        O  0.36069433  0.15951134  0.54536664    -0.47180
C274        C  0.49643249  0.15385717  0.62447179     0.74400
O275        O  0.35437944  0.16553252  0.63816175    -0.59040
O276        O  0.47278441  0.11290512  0.63292389    -0.49130
O277        O  0.35967969  0.08385979  0.63445072    -0.55470
C278        C  0.41214934  0.03009133  0.57560286     0.84580
O279        O  0.44283925  0.15010249  0.54168405    -0.57360
O280        O  0.46999127  0.18711699  0.60655658    -0.60660
C281        C  0.14349696  0.28190613  0.31600782    -0.03040
C282        C  0.30326392  0.11979906  0.32238830    -0.03040
C283        C  0.24530780  0.37616924  0.17910892    -0.03040
C284        C  0.40584063  0.20767797  0.18639475    -0.03040
In285      In  0.14087398  0.37702381  0.08783388     1.36870
C286        C  0.20880636  0.37477559  0.14514246     0.77030
O287        O  0.18165616  0.44782050  0.06702005    -0.61410
O288        O  0.10042989  0.45158737  0.07828512    -0.52320
C289        C  0.14314088  0.34444272  0.01804297     0.69700
O290        O  0.18315124  0.33899640  0.03861471    -0.47180
C291        C  0.05004054  0.34491590  0.11360252     0.74400
O292        O  0.21287975  0.34429911  0.11736371    -0.59040
O293        O  0.07163907  0.38645407  0.12336064    -0.49610
O294        O  0.16990258  0.40440939  0.14326507    -0.55470
C295        C  0.14135398  0.47532992  0.06995791     0.84580
O296        O  0.10310186  0.36064879  0.03446798    -0.57360
O297        O  0.07892532  0.31409980  0.09542598    -0.60660
In298      In  0.39907617  0.11619036  0.09071980     1.36870
C299        C  0.39724033  0.17638377  0.15055696     0.77030
O300        O  0.33804458  0.05209786  0.09423100    -0.61410
O301        O  0.41143348  0.04517825  0.12241902    -0.52320
C302        C  0.37189450  0.12129512  0.01919894     0.69700
O303        O  0.35098655  0.15267981  0.04209912    -0.47180
C304        C  0.50052412  0.11733419  0.08503640     0.74400
O305        O  0.41416352  0.19196817  0.11949260    -0.59040
O306        O  0.47524967  0.07648129  0.09099196    -0.49130
O307        O  0.37220461  0.13454065  0.14835439    -0.55470
C308        C  0.36975749  0.02350106  0.11220473     0.84580
O309        O  0.40257867  0.08908964  0.03368959    -0.57360
O310        O  0.47380461  0.15760156  0.07965849    -0.60660
In311      In  0.15306610  0.38476317  0.40606058     1.36870
C312        C  0.15199637  0.31862209  0.34912719     0.77030
O313        O  0.07903929  0.34459211  0.42207359    -0.61410
O314        O  0.07748941  0.42556610  0.41041497    -0.52320
C315        C  0.17359923  0.37917363  0.47809462     0.69700
O316        O  0.19474601  0.34657631  0.45615694    -0.47180
C317        C  0.18928583  0.47496459  0.38502726     0.74400
O318        O  0.18035709  0.31065774  0.37780468    -0.59040
O319        O  0.15235335  0.45221362  0.36899215    -0.49130
O320        O  0.12907930  0.36151867  0.34959801    -0.55470
C321        C  0.05234941  0.38540798  0.41850151     0.84580
O322        O  0.14682670  0.41388651  0.46245450    -0.57360
O323        O  0.21680794  0.44664484  0.40622172    -0.60660
In324      In  0.40759017  0.13178318  0.41245193     1.36870
C325        C  0.34089301  0.13073845  0.35515414     0.77030
O326        O  0.47080925  0.19350228  0.41005146    -0.61410
O327        O  0.47449242  0.12698556  0.37498882    -0.52320
C328        C  0.40046908  0.15885802  0.48371757     0.69700
O329        O  0.36007482  0.15852558  0.46311396    -0.47180
C330        C  0.41490841  0.03137848  0.42620307     0.74400
O331        O  0.33815602  0.16669545  0.37942340    -0.59040
O332        O  0.45310004  0.05837715  0.41653217    -0.49130
O333        O  0.37964698  0.10180489  0.35938879    -0.55470
C334        C  0.49852540  0.16354954  0.39032218     0.84580
O335        O  0.44266341  0.15119442  0.46679438    -0.57360
O336        O  0.37370279  0.05635253  0.43275401    -0.60660
In337      In  0.40900293  0.87533860  0.59087710     1.36870
C338        C  0.34354671  0.87592354  0.64823118     0.77030
O339        O  0.47027776  0.81165122  0.59831279    -0.61410
O340        O  0.47390155  0.88119034  0.63013936    -0.52320
C341        C  0.40515056  0.84859565  0.51943586     0.69700
O342        O  0.36473384  0.84447996  0.53962318    -0.47180
C343        C  0.41174275  0.97420972  0.57493466     0.74400
O344        O  0.34030882  0.84236994  0.62226097    -0.59040
O345        O  0.45213973  0.94849011  0.58226442    -0.49130
O346        O  0.38111371  0.90655272  0.64460905    -0.55470
C347        C  0.49709763  0.84131487  0.61897638     0.84580
O348        O  0.44627537  0.85981004  0.53692335    -0.57360
O349        O  0.37014088  0.94855898  0.57239894    -0.60660
C350        C  0.40998542  0.77956949  0.81480370    -0.03040
C351        C  0.23923598  0.61921719  0.82231473    -0.03040
C352        C  0.14787937  0.71749213  0.68452613    -0.03040
C353        C  0.30827343  0.88053337  0.68266391    -0.03040
In354      In  0.15227865  0.62071861  0.92122517     1.36870
C355        C  0.21004050  0.62258684  0.85939281     0.77030
O356        O  0.18845021  0.54615880  0.93967078    -0.61410
O357        O  0.10572657  0.55073035  0.93419086    -0.52320
C358        C  0.16976289  0.66022676  0.98839849     0.69700
O359        O  0.20533738  0.63750733  0.97048837    -0.47180
C360        C  0.05623497  0.63840596  0.89780393     0.74400
O361        O  0.19569029  0.58258428  0.87600237    -0.59040
O362        O  0.08131349  0.59749068  0.89140606    -0.49130
O363        O  0.19845277  0.66376934  0.87684227    -0.55470
C364        C  0.14557409  0.52257902  0.93723060     0.84580
O365        O  0.12914996  0.66946041  0.96985423    -0.57360
O366        O  0.08239357  0.67456145  0.91258449    -0.60660
In367      In  0.15570911  0.61806071  0.59328279     1.36870
C368        C  0.15771745  0.68449797  0.64964756     0.77030
O369        O  0.08068708  0.65393307  0.57552714    -0.61410
O370        O  0.08021127  0.57767242  0.59836826    -0.52320
C371        C  0.18069317  0.62252148  0.52231053     0.69700
O372        O  0.20368091  0.65297695  0.54493446    -0.47180
C373        C  0.18930709  0.52679352  0.61375989     0.74400
O374        O  0.14288286  0.69740560  0.61737058    -0.59040
O375        O  0.14940977  0.54845117  0.62708634    -0.49130
O376        O  0.17725121  0.63978799  0.65089290    -0.55470
C377        C  0.05454611  0.61537269  0.58574472     0.84580
O378        O  0.15064262  0.59011250  0.53706618    -0.57360
O379        O  0.21842771  0.55549384  0.59402425    -0.60660
In380      In  0.39274442  0.87154277  0.90904840     1.36870
C381        C  0.39409009  0.80947368  0.85018148     0.77030
O382        O  0.33089512  0.93461972  0.90276845    -0.61410
O383        O  0.40724663  0.94285008  0.87931597    -0.52320
C384        C  0.37277552  0.86907319  0.98156936     0.69700
O385        O  0.35014057  0.83642002  0.96039226    -0.47180
C386        C  0.49415893  0.87097553  0.91772282     0.74400
O387        O  0.40952206  0.79536024  0.88208480    -0.59040
O388        O  0.46950618  0.91035121  0.90675771    -0.49130
O389        O  0.36620086  0.84982955  0.85062946    -0.55470
C390        C  0.36418425  0.96378428  0.88699357     0.84580
O391        O  0.39837116  0.90311200  0.96478572    -0.57360
O392        O  0.46698453  0.83164484  0.92468844    -0.60660
C393        C  0.40703139  0.77990289  0.19124776    -0.03040
C394        C  0.24856256  0.61051023  0.18906868    -0.03040
C395        C  0.14366322  0.71914942  0.31636847    -0.03040
C396        C  0.29803926  0.88810067  0.32153072    -0.03040
In397      In  0.14913464  0.62591005  0.09578075     1.36870
C398        C  0.21149568  0.61862238  0.15532310     0.77030
O399        O  0.08141583  0.68190387  0.10512599    -0.61410
O400        O  0.07728740  0.60387569  0.12441465    -0.52320
C401        C  0.16928805  0.66342789  0.02911422     0.69700
O402        O  0.20505002  0.64446889  0.04914537    -0.47180
C403        C  0.14312067  0.53105982  0.07097011     0.74400
O404        O  0.19845914  0.66214286  0.14136709    -0.59040
O405        O  0.10315771  0.55724401  0.07866283    -0.49130
O406        O  0.19082693  0.58115915  0.13885397    -0.55470
C407        C  0.05357759  0.64572590  0.11817529     0.84580
O408        O  0.12764722  0.67346996  0.04608720    -0.57360
O409        O  0.18555183  0.55539341  0.07109183    -0.60660
In410      In  0.41249443  0.87590508  0.40680103     1.36870
C411        C  0.33932546  0.87953378  0.35278189     0.77030
O412        O  0.37891781  0.94714963  0.43341907    -0.61410
O413        O  0.45410799  0.95175838  0.40919649    -0.52320
C414        C  0.40602151  0.84898722  0.47832138     0.69700
O415        O  0.36671333  0.84408538  0.45694497    -0.47180
C416        C  0.50359242  0.84206520  0.38373419     0.74400
O417        O  0.34532595  0.83962410  0.37322864    -0.59040
O418        O  0.48035416  0.88004281  0.36930934    -0.49130
O419        O  0.37412653  0.91288773  0.35806713    -0.55470
C420        C  0.41674294  0.97523515  0.42436231     0.84580
O421        O  0.44749205  0.86164736  0.46206351    -0.57360
O422        O  0.47517713  0.81304536  0.40350653    -0.60660
In423      In  0.40123999  0.87517599  0.09451288     1.36870
C424        C  0.40262067  0.81266404  0.15465219     0.77030
O425        O  0.47608911  0.83588879  0.07835664    -0.61410
O426        O  0.47582625  0.91710827  0.08936126    -0.52320
C427        C  0.37640730  0.86886906  0.02262135     0.69700
O428        O  0.35728181  0.83601595  0.04525545    -0.47180
C429        C  0.36710732  0.96706259  0.11475130     0.74400
O430        O  0.37072597  0.80517786  0.12772663    -0.59040
O431        O  0.40391846  0.94381963  0.13061509    -0.49130
O432        O  0.43137969  0.85102495  0.14915518    -0.55470
C433        C  0.50201326  0.87714177  0.08229769     0.84580
O434        O  0.40471643  0.90286397  0.03748334    -0.57360
O435        O  0.33861187  0.93878822  0.09437884    -0.60660
In436      In  0.15687342  0.62295040  0.40999665     1.36870
C437        C  0.15592325  0.68878649  0.35267055     0.77030
O438        O  0.21861032  0.55951758  0.40562064    -0.61410
O439        O  0.14598902  0.55354361  0.37638763    -0.52320
C440        C  0.18137689  0.62380079  0.48143924     0.69700
O441        O  0.20273087  0.65710711  0.46021546    -0.47180
C442        C  0.05581774  0.62227900  0.41934146     0.74400
O443        O  0.13239086  0.69745833  0.38281429    -0.59040
O444        O  0.08082077  0.58277284  0.40897371    -0.49130
O445        O  0.18669554  0.65042974  0.35462469    -0.55470
C446        C  0.18728778  0.53142417  0.38707312     0.84580
O447        O  0.15355655  0.59095091  0.46512554    -0.57360
O448        O  0.08266328  0.66194506  0.42617046    -0.60660
C449        C  0.16763881  0.77515719  0.31842147    -0.06670
C450        C  0.18427054  0.79475796  0.35318086    -0.17800
C451        C  0.22518418  0.83033049  0.35690412     0.10530
C452        C  0.24741246  0.85376780  0.32426576    -0.06600
C453        C  0.22084731  0.84352280  0.29021547    -0.17830
C454        C  0.18287787  0.80453028  0.28655257     0.10560
S455        S  0.24713218  0.83822159  0.40453744    -0.32800
S456        S  0.15889049  0.79375698  0.23962051    -0.32800
H457        H  0.11217984  0.76933353  0.24893306     0.28570
H458        H  0.19788937  0.83401332  0.42156029     0.28560
H459        H  0.16871433  0.77889990  0.37852346     0.19150
H460        H  0.23260838  0.86349505  0.26502317     0.19160
C461        C  0.21947440  0.62891172  0.22534889    -0.06670
C462        C  0.24897067  0.65273346  0.25412407    -0.17800
C463        C  0.22617540  0.68119125  0.28307196     0.10530
C464        C  0.17110501  0.68903192  0.28381919    -0.06600
C465        C  0.14197543  0.66599072  0.25464574    -0.17830
C466        C  0.16436351  0.63215011  0.22874041     0.10560
S467        S  0.26989577  0.70817367  0.31772428    -0.32800
S468        S  0.11925424  0.58969260  0.20519095    -0.32800
H469        H  0.15384102  0.54753681  0.20333379     0.28570
H470        H  0.30927815  0.67052314  0.31378498     0.28560
H471        H  0.29110233  0.65019225  0.25335685     0.19150
H472        H  0.10038030  0.67151552  0.25258752     0.19160
C473        C  0.38706323  0.81157305  0.22665774    -0.06670
C474        C  0.37358658  0.86448722  0.22389672    -0.17800
C475        C  0.34287069  0.89090267  0.25051142     0.10530
C476        C  0.32994619  0.86713743  0.28578530    -0.06600
C477        C  0.34765259  0.81503756  0.28908655    -0.17830
C478        C  0.37623030  0.78852219  0.26167986     0.10560
S479        S  0.31680909  0.94988451  0.23178219    -0.32800
S480        S  0.39828631  0.72533889  0.27464205    -0.32800
H481        H  0.45104619  0.73886889  0.27040351     0.28570
H482        H  0.30986173  0.93283260  0.19467564     0.28560
H483        H  0.38301039  0.88548986  0.19888344     0.19150
H484        H  0.33894120  0.79358508  0.31417106     0.19160
C485        C  0.36715461  0.73511326  0.18448023    -0.06670
C486        C  0.38117389  0.68630363  0.17038462    -0.17800
C487        C  0.34757175  0.64278325  0.17325386     0.10530
C488        C  0.29377508  0.65086343  0.18185364    -0.06600
C489        C  0.27797228  0.70341673  0.18447565    -0.17830
C490        C  0.31242128  0.74460133  0.18557690     0.10560
S491        S  0.37678964  0.57978383  0.16733818    -0.32800
S492        S  0.28276277  0.80850459  0.18556579    -0.32800
H493        H  0.23497933  0.79450422  0.16892856     0.28570
H494        H  0.42333908  0.59611878  0.15038795     0.28560
H495        H  0.41870393  0.68219920  0.15744998     0.19150
H496        H  0.23736267  0.71281571  0.18902727     0.19160
C497        C  0.17490568  0.77212079  0.68208950    -0.06670
C498        C  0.19356157  0.79220311  0.64795235    -0.17800
C499        C  0.23083195  0.83196967  0.64650101     0.10530
C500        C  0.25654014  0.84852414  0.67994237    -0.06600
C501        C  0.23185271  0.83443549  0.71351373    -0.17830
C502        C  0.18854110  0.80150962  0.71431648     0.10560
S503        S  0.23621789  0.86353181  0.60184413    -0.32800
S504        S  0.14919029  0.80554786  0.75570106    -0.32800
H505        H  0.10154037  0.79864978  0.73705736     0.28570
H506        H  0.20111605  0.90288709  0.61240304     0.28560
H507        H  0.17809793  0.77885809  0.62170174     0.19150
H508        H  0.24594307  0.84938189  0.73975837     0.19160
C509        C  0.20918941  0.63961511  0.78712014    -0.06670
C510        C  0.23841697  0.63969542  0.75396411    -0.17800
C511        C  0.22229767  0.66548093  0.72156712     0.10530
C512        C  0.17166622  0.68906019  0.71965808    -0.06600
C513        C  0.14183939  0.68684584  0.75256699    -0.17830
C514        C  0.15836192  0.66240816  0.78523225     0.10560
S515        S  0.27085979  0.66477007  0.68527968    -0.32800
S516        S  0.11282705  0.66712326  0.82325339    -0.32800
H517        H  0.06697396  0.66540758  0.80145733     0.28570
H518        H  0.25336849  0.70867288  0.66617905     0.28560
H519        H  0.27692114  0.62214455  0.75427505     0.19150
H520        H  0.10487454  0.70671875  0.75381303     0.19160
C521        C  0.39671904  0.81018096  0.77733310    -0.06670
C522        C  0.38124454  0.78053722  0.74618527    -0.17800
C523        C  0.35715425  0.80243965  0.71469143     0.10530
C524        C  0.34455813  0.85623649  0.71375955    -0.06600
C525        C  0.37236722  0.88669544  0.73945769    -0.17830
C526        C  0.39769265  0.86524604  0.77109396     0.10560
S527        S  0.34785452  0.76072468  0.67503996    -0.32800
S528        S  0.43235560  0.91057830  0.80024038    -0.32800
H529        H  0.43111512  0.95393909  0.77641284     0.28570
H530        H  0.38224688  0.72095901  0.68615067     0.28560
H531        H  0.38540416  0.73894240  0.74710723     0.19150
H532        H  0.37459190  0.92786932  0.73477600     0.19160
C533        C  0.37183628  0.73202264  0.81867810    -0.06670
C534        C  0.31943501  0.74531698  0.81211525    -0.17800
C535        C  0.27815750  0.71301761  0.82011363     0.10530
C536        C  0.28658291  0.65883720  0.82662730    -0.06600
C537        C  0.33761878  0.64706161  0.83977576    -0.17830
C538        C  0.37968720  0.68351533  0.83726824     0.10560
S539        S  0.21681949  0.74665327  0.82630143    -0.32800
S540        S  0.43918443  0.67003881  0.86260625    -0.32800
H541        H  0.42975635  0.61697232  0.86850658     0.28570
H542        H  0.23697696  0.79562317  0.83592804     0.28560
H543        H  0.30979212  0.78451506  0.80371526     0.19150
H544        H  0.34352919  0.61247461  0.85606470     0.19160
C545        C  0.26284413  0.55006277  0.19096679    -0.06670
C546        C  0.27502357  0.52369454  0.15728669    -0.17800
C547        C  0.27445936  0.46915251  0.15326867     0.10530
C548        C  0.25880500  0.43622148  0.18368065    -0.06600
C549        C  0.24900804  0.46271097  0.21764470    -0.17830
C550        C  0.25448887  0.51663738  0.22231493     0.10560
S551        S  0.29143394  0.44688988  0.10684563    -0.32800
S552        S  0.25411541  0.53686198  0.27045023    -0.32800
H553        H  0.30306038  0.56096085  0.26714577     0.28570
H554        H  0.30432516  0.39564999  0.11508018     0.28560
H555        H  0.28316305  0.54662125  0.13260062     0.19150
H556        H  0.23624493  0.44241730  0.24205341     0.19160
C557        C  0.29210183  0.33768474  0.17317448    -0.06670
C558        C  0.27766775  0.28528601  0.17017557    -0.17800
C559        C  0.31208350  0.24470004  0.17692933     0.10530
C560        C  0.36710943  0.25400066  0.17850035    -0.06600
C561        C  0.38226449  0.30562419  0.17097347    -0.17830
C562        C  0.34687565  0.34756979  0.17433470     0.10560
S563        S  0.28189322  0.18168133  0.18281362    -0.32800
S564        S  0.37480231  0.41097340  0.18138716    -0.32800
H565        H  0.42602408  0.39429814  0.18917969     0.28570
H566        H  0.23282843  0.19938747  0.19493455     0.28560
H567        H  0.23727205  0.27551073  0.16636092     0.19150
H568        H  0.42089592  0.31443866  0.16168021     0.19160
C569        C  0.28702851  0.06013483  0.32253376    -0.06670
C570        C  0.29469642  0.03173665  0.35565802    -0.17800
C571        C  0.28881646  0.97824796  0.35752941     0.10530
C572        C  0.28142723  0.94794721  0.32463290    -0.06600
C573        C  0.25569652  0.97607461  0.29643967    -0.17830
C574        C  0.26100313  0.03125940  0.29342730     0.10560
S575        S  0.27321172  0.95569509  0.40328437    -0.32800
S576        S  0.23774679  0.06081321  0.25089716    -0.32800
H577        H  0.21086628  0.01776935  0.23641640     0.28570
H578        H  0.22161584  0.94433985  0.39247427     0.28560
H579        H  0.30208196  0.05144055  0.38171056     0.19150
H580        H  0.23521535  0.95465034  0.27507057     0.19160
C581        C  0.33770642  0.13789853  0.28887907    -0.06670
C582        C  0.34901609  0.19140381  0.28628459    -0.17800
C583        C  0.37637007  0.21261719  0.25616909     0.10530
C584        C  0.38725865  0.18200161  0.22398888    -0.06600
C585        C  0.37872126  0.12798061  0.22811887    -0.17830
C586        C  0.36110858  0.10598776  0.26156325     0.10560
S587        S  0.39529002  0.27933573  0.26096893    -0.32800
S588        S  0.38225058  0.04048073  0.26986214    -0.32800
H589        H  0.39148531  0.04515872  0.30814831     0.28570
H590        H  0.44804831  0.26586617  0.26604680     0.28560
H591        H  0.33688557  0.21712637  0.30856860     0.19150
H592        H  0.38782848  0.10084487  0.20650089     0.19160
C593        C  0.17098823  0.30753308  0.28130349    -0.06670
C594        C  0.14832113  0.30220166  0.24601733    -0.17800
C595        C  0.16886567  0.32262641  0.21335021     0.10530
C596        C  0.21612878  0.35246595  0.21430895    -0.06600
C597        C  0.24399375  0.34961569  0.24860183    -0.17830
C598        C  0.22295513  0.32742470  0.28143512     0.10560
S599        S  0.13454303  0.30002733  0.17232220    -0.32800
S600        S  0.26573787  0.32046877  0.32144098    -0.32800
H601        H  0.30847599  0.34828136  0.30734511     0.28570
H602        H  0.12231900  0.25001422  0.18518374     0.28560
H603        H  0.11323811  0.28010808  0.24307317     0.19150
H604        H  0.28343969  0.36448701  0.24927553     0.19160
C605        C  0.16929954  0.22712669  0.32071157    -0.06670
C606        C  0.18712747  0.20726656  0.35533935    -0.17800
C607        C  0.22526554  0.16777344  0.35702882     0.10530
C608        C  0.25277824  0.15353635  0.32395764    -0.06600
C609        C  0.23017993  0.16987804  0.29003780    -0.17830
C610        C  0.18406259  0.19783899  0.28906374     0.10560
S611        S  0.23330098  0.13549180  0.40121745    -0.32800
S612        S  0.14099734  0.18292859  0.25074476    -0.32800
H613        H  0.09498432  0.19209349  0.27089398     0.28570
H614        H  0.21394733  0.08851289  0.38692182     0.28560
H615        H  0.16987330  0.22032039  0.38117372     0.19150
H616        H  0.24653279  0.15882503  0.26356455     0.19160
C617        C  0.24720800  0.55792052  0.81444327    -0.06670
C618        C  0.29516335  0.53077351  0.81813792    -0.17800
C619        C  0.29818535  0.47559776  0.82143298     0.10530
C620        C  0.25403995  0.44327508  0.81305202    -0.06600
C621        C  0.20882005  0.47081625  0.80275491    -0.17830
C622        C  0.20328642  0.52473348  0.80655977     0.10560
S623        S  0.35857648  0.45173002  0.84052835    -0.32800
S624        S  0.13671143  0.54688804  0.80266751    -0.32800
H625        H  0.11309842  0.50228768  0.81769487     0.28570
H626        H  0.33375887  0.43118192  0.87221114     0.28560
H627        H  0.33116057  0.55135134  0.82032281     0.19150
H628        H  0.17479158  0.44906275  0.79414206     0.19160
C629        C  0.37635163  0.26899100  0.82285926    -0.06670
C630        C  0.37614605  0.30578480  0.79373777    -0.17800
C631        C  0.33866305  0.34593324  0.79220810     0.10530
C632        C  0.30139684  0.35149289  0.82170782    -0.06600
C633        C  0.31552387  0.32642238  0.85535310    -0.17830
C634        C  0.35185496  0.28553014  0.85656436     0.10560
S635        S  0.34376565  0.39152590  0.75411240    -0.32800
S636        S  0.37197903  0.26360952  0.90248982    -0.32800
H637        H  0.32668245  0.27905538  0.92163062     0.28570
H638        H  0.38127805  0.36482129  0.73291765     0.28560
H639        H  0.40129772  0.29923676  0.77002077     0.19150
H640        H  0.30101707  0.34063523  0.88154926     0.19160
C641        C  0.17102544  0.30903519  0.71652888    -0.06670
C642        C  0.15697203  0.29547946  0.75315473    -0.17800
C643        C  0.18547479  0.31137050  0.78472571     0.10530
C644        C  0.21853303  0.35611906  0.78300693    -0.06600
C645        C  0.22391959  0.37749913  0.74712519    -0.17830
C646        C  0.20782872  0.35142831  0.71455061     0.10560
S647        S  0.17887285  0.26860877  0.82419744    -0.32800
S648        S  0.24208640  0.37462134  0.67395926    -0.32800
H649        H  0.25695921  0.32538551  0.66164819     0.28570
H650        H  0.23289129  0.26559376  0.83049882     0.28560
H651        H  0.12390559  0.27111485  0.75778324     0.19150
H652        H  0.24502888  0.41329000  0.74369557     0.19160
C653        C  0.28661964  0.05327125  0.68443238    -0.06670
C654        C  0.28721951  0.02582525  0.71875062    -0.17800
C655        C  0.28733298  0.97062900  0.72037909     0.10530
C656        C  0.29333432  0.94040700  0.68692229    -0.06600
C657        C  0.28313954  0.96816366  0.65379232    -0.17830
C658        C  0.27557017  0.02173179  0.65265686     0.10560
S659        S  0.27425410  0.94295034  0.76548733    -0.32800
S660        S  0.25109234  0.04542634  0.60897179    -0.32800
H661        H  0.20648518  0.06703022  0.62567127     0.28570
H662        H  0.22080258  0.93760193  0.75723108     0.28560
H663        H  0.28607381  0.04721718  0.74473047     0.19150
H664        H  0.28175024  0.94822407  0.62745402     0.19160
C665        C  0.32621866  0.13847299  0.71635889    -0.06670
C666        C  0.36498052  0.11168770  0.73696747    -0.17800
C667        C  0.39006873  0.13350564  0.76870921     0.10530
C668        C  0.37579366  0.18453246  0.78167892    -0.06600
C669        C  0.33404026  0.20777423  0.76224335    -0.17830
C670        C  0.31817118  0.19080741  0.72722097     0.10560
S671        S  0.43649418  0.09071295  0.79128974    -0.32800
S672        S  0.30021285  0.24131525  0.69480210    -0.32800
H673        H  0.31436689  0.28407544  0.71701004     0.28570
H674        H  0.47113580  0.12692544  0.80585539     0.28560
H675        H  0.37704409  0.07355159  0.72778385     0.19150
H676        H  0.31458933  0.24184190  0.77231253     0.19160
C677        C  0.24649507  0.14241241  0.67348626    -0.06670
C678        C  0.21207515  0.14550833  0.70398665    -0.17800
C679        C  0.17472648  0.18533358  0.70690220     0.10530
C680        C  0.17159081  0.22415939  0.67836737    -0.06600
C681        C  0.19294118  0.20888491  0.64389457    -0.17830
C682        C  0.23226892  0.17178311  0.64101335     0.10560
S683        S  0.12555365  0.17665494  0.74230015    -0.32800
S684        S  0.26025143  0.16573123  0.59486926    -0.32800
H685        H  0.24875402  0.21629247  0.58242875     0.28570
H686        H  0.15536123  0.14524342  0.76647211     0.28560
H687        H  0.21713285  0.11867050  0.72697982     0.19150
H688        H  0.17704667  0.22356123  0.61814216     0.19160
C689        C  0.58309228  0.77780535  0.19665783    -0.06670
C690        C  0.55694332  0.72987046  0.19422383    -0.17800
C691        C  0.50190089  0.72469927  0.19717428     0.10530
C692        C  0.46863416  0.77036927  0.19761948    -0.06600
C693        C  0.49648416  0.81726823  0.20276912    -0.17830
C694        C  0.55044836  0.82269466  0.19994019     0.10560
S695        S  0.48519278  0.65805960  0.20743343    -0.32800
S696        S  0.57138980  0.89024823  0.20221643    -0.32800
H697        H  0.62554716  0.88763653  0.20062227     0.28570
H698        H  0.43828182  0.66575489  0.22546755     0.28560
H699        H  0.57989439  0.69484213  0.19198389     0.19150
H700        H  0.47519705  0.85279026  0.20763753     0.19160
C701        C  0.75076278  0.64643656  0.17880523    -0.06670
C702        C  0.71806889  0.64926456  0.21040448    -0.17800
C703        C  0.68238448  0.69014771  0.21636817     0.10530
C704        C  0.67411862  0.72840205  0.18829326    -0.06600
C705        C  0.69599555  0.71620254  0.15298029    -0.17830
C706        C  0.73260808  0.67627647  0.14742746     0.10560
S707        S  0.64792578  0.69026232  0.26005276    -0.32800
S708        S  0.74588551  0.66123362  0.09872050    -0.32800
H709        H  0.70096523  0.68372697  0.08276290     0.28570
H710        H  0.68171968  0.65684682  0.27973772     0.28560
H711        H  0.72020172  0.61928998  0.23109781     0.19150
H712        H  0.68448523  0.73781397  0.12851151     0.19160
C713        C  0.71958949  0.86656689  0.28979657    -0.06670
C714        C  0.66758256  0.84941419  0.29286147    -0.17800
C715        C  0.64160014  0.82125109  0.26498244     0.10530
C716        C  0.66754022  0.80990212  0.22999411    -0.06600
C717        C  0.71915225  0.82874062  0.22692792    -0.17830
C718        C  0.74378840  0.85876850  0.25465731     0.10560
S719        S  0.57643626  0.80348822  0.28062537    -0.32800
S720        S  0.80778880  0.88437914  0.24477082    -0.32800
H721        H  0.80477503  0.87955438  0.20563861     0.28570
H722        H  0.57068856  0.75460357  0.26506513     0.28560
H723        H  0.64602914  0.85636852  0.31816811     0.19150
H724        H  0.74210197  0.81839025  0.20288130     0.19160
C725        C  0.96756566  0.72108290  0.31143516    -0.06670
C726        C  0.99734363  0.67480403  0.31173059    -0.17800
C727        C  0.05180825  0.67306366  0.31444667     0.10530
C728        C  0.08184319  0.71957225  0.31319662    -0.06600
C729        C  0.05277166  0.76605440  0.30852670    -0.17830
C730        C  0.99757498  0.76684082  0.30435298     0.10560
S731        S  0.08067435  0.60901366  0.31710785    -0.32800
S732        S  0.97301949  0.82338493  0.28009095    -0.32800
H733        H  0.92931708  0.79981213  0.26374881     0.28570
H734        H  0.03696977  0.58333532  0.33190204     0.28560
H735        H  0.97768919  0.63814671  0.30858267     0.19150
H736        H  0.07317576  0.80233867  0.30503910     0.19160
C737        C  0.88514180  0.67919181  0.28393617    -0.06670
C738        C  0.90443884  0.68961966  0.24815243    -0.17800
C739        C  0.88038059  0.67253976  0.21521190     0.10530
C740        C  0.83575667  0.63846634  0.21656227    -0.06600
C741        C  0.81968936  0.62464094  0.25309952    -0.17830
C742        C  0.84220944  0.64359398  0.28593306     0.10560
S743        S  0.90529655  0.70651593  0.17513076    -0.32800
S744        S  0.80678597  0.62418784  0.32733318    -0.32800
H745        H  0.79387307  0.67426996  0.33915713     0.28570
H746        H  0.95833295  0.70349372  0.18548865     0.28560
H747        H  0.93632310  0.71651999  0.24541473     0.19150
H748        H  0.78874361  0.59703005  0.25686387     0.19160
C749        C  0.87060797  0.76447314  0.31868944    -0.06670
C750        C  0.88607367  0.81114061  0.33643026    -0.17800
C751        C  0.85306961  0.85563859  0.33439990     0.10530
C752        C  0.79772095  0.84806215  0.33011685    -0.06600
C753        C  0.78287174  0.79565889  0.32712050    -0.17830
C754        C  0.81684043  0.76210747  0.30946998     0.10560
S755        S  0.88625807  0.91692466  0.33438824    -0.32800
S756        S  0.79480972  0.74510493  0.26323697    -0.32800
H757        H  0.74243066  0.73944648  0.27321471     0.28570
H758        H  0.85995058  0.93654228  0.30301985     0.28560
H759        H  0.92526752  0.81508234  0.34726443     0.19150
H760        H  0.74194018  0.78556117  0.32624300     0.19160
C761        C  0.58536298  0.77614800  0.81353620    -0.06670
C762        C  0.55708699  0.73193249  0.80126793    -0.17800
C763        C  0.50132242  0.73199251  0.79825528     0.10530
C764        C  0.47144872  0.77210884  0.81563681    -0.06600
C765        C  0.50096663  0.81443464  0.82885372    -0.17830
C766        C  0.55432855  0.82001241  0.82280477     0.10560
S767        S  0.47043394  0.68145808  0.77131322    -0.32800
S768        S  0.57965323  0.88557425  0.82286144    -0.32800
H769        H  0.53592880  0.91137500  0.83744508     0.28570
H770        H  0.51634533  0.66022263  0.75622394     0.28560
H771        H  0.57829318  0.69815229  0.79205499     0.19150
H772        H  0.48188795  0.84620616  0.84227256     0.19160
C773        C  0.75169848  0.64215378  0.82079763    -0.06670
C774        C  0.72791421  0.65737499  0.78669140    -0.17800
C775        C  0.68925948  0.69636782  0.78471366     0.10530
C776        C  0.67295900  0.72231445  0.81790129    -0.06600
C777        C  0.68729365  0.69787235  0.85177401    -0.17830
C778        C  0.72456325  0.65792054  0.85364459     0.10560
S779        S  0.66149122  0.71143745  0.73937801    -0.32800
S780        S  0.72662585  0.62452141  0.89777807    -0.32800
H781        H  0.73184975  0.57508118  0.88179145     0.28570
H782        H  0.69732770  0.68342580  0.71757312     0.28560
H783        H  0.74166157  0.64024755  0.76097756     0.19150
H784        H  0.66924688  0.70910996  0.87763116     0.19160
C785        C  0.72352203  0.85938998  0.72265527    -0.06670
C786        C  0.75175993  0.83395816  0.75117819    -0.17800
C787        C  0.72858292  0.81739072  0.78422376     0.10530
C788        C  0.67362954  0.81049354  0.78623235    -0.06600
C789        C  0.64456653  0.83304863  0.75677533    -0.17830
C790        C  0.66825997  0.86283945  0.72872882     0.10560
S791        S  0.77154177  0.82107264  0.82394828    -0.32800
S792        S  0.62462046  0.90765144  0.70565625    -0.32800
H793        H  0.66083510  0.94732202  0.70032830     0.28570
H794        H  0.75240387  0.77801383  0.84309585     0.28560
H795        H  0.79330027  0.83313382  0.75159673     0.19150
H796        H  0.60253199  0.83085617  0.75636025     0.19160
C797        C  0.97272855  0.72597007  0.68927659    -0.06670
C798        C  0.00158056  0.68321214  0.70265001    -0.17800
C799        C  0.05511524  0.67683333  0.69612180     0.10530
C800        C  0.08635493  0.72033309  0.68596146    -0.06600
C801        C  0.05856684  0.76406482  0.67284653    -0.17830
C802        C  0.00329102  0.76519383  0.67098927     0.10560
S803        S  0.08129704  0.61171182  0.70059703    -0.32800
S804        S  0.97666820  0.81564777  0.64171531    -0.32800
H805        H  0.94652149  0.78152232  0.62005914     0.28570
H806        H  0.03340010  0.58528469  0.69893477     0.28560
H807        H  0.98208785  0.65216598  0.71657609     0.19150
H808        H  0.07989670  0.79605845  0.66078444     0.19160
C809        C  0.88826236  0.68917918  0.72235811    -0.06670
C810        C  0.87422942  0.71636785  0.75495197    -0.17800
C811        C  0.85334713  0.69268644  0.78680614     0.10530
C812        C  0.83715324  0.63997806  0.78595278    -0.06600
C813        C  0.84764770  0.61305247  0.75267728    -0.17830
C814        C  0.87799686  0.63431161  0.72385736     0.10560
S815        S  0.84981100  0.73210667  0.82820760    -0.32800
S816        S  0.91086540  0.58681699  0.69542663    -0.32800
H817        H  0.87702085  0.54473245  0.70119232     0.28570
H818        H  0.88783385  0.76873289  0.81803450     0.28560
H819        H  0.87897544  0.75709435  0.75676820     0.19150
H820        H  0.83521384  0.57339705  0.74986327     0.19160
C821        C  0.88089112  0.77319606  0.68219710    -0.06670
C822        C  0.84569275  0.77891956  0.65178729    -0.17800
C823        C  0.81181791  0.82068054  0.64821057     0.10530
C824        C  0.80501569  0.85515761  0.67883407    -0.06600
C825        C  0.84875610  0.85888291  0.70269519    -0.17830
C826        C  0.88665633  0.81904447  0.70491809     0.10560
S827        S  0.78985302  0.83155974  0.60075019    -0.32800
S828        S  0.94077815  0.83310217  0.73629670    -0.32800
H829        H  0.95872941  0.78313912  0.74427126     0.28570
H830        H  0.79289798  0.88562213  0.60202509     0.28560
H831        H  0.84558770  0.75267253  0.62839445     0.19150
H832        H  0.85070695  0.89052398  0.72255271     0.19160
C833        C  0.96843801  0.26492921  0.31480305    -0.06670
C834        C  0.99618421  0.28389320  0.28384262    -0.17800
C835        C  0.04714450  0.30220575  0.28823928     0.10530
C836        C  0.08177778  0.27659422  0.31382485    -0.06600
C837        C  0.05611569  0.24719059  0.34168248    -0.17830
C838        C  0.00095462  0.24403022  0.34386980     0.10560
S839        S  0.05681636  0.36542665  0.26702091    -0.32800
S840        S  0.97547935  0.21374248  0.38510527    -0.32800
H841        H  0.95944434  0.16948651  0.36518951     0.28570
H842        H  0.09987449  0.38133749  0.28801940     0.28560
H843        H  0.97716280  0.29244282  0.25774435     0.19150
H844        H  0.07899107  0.22929161  0.36364031     0.19160
C845        C  0.76055874  0.94790738  0.32109496    -0.06670
C846        C  0.73495637  0.97550429  0.29164212    -0.17800
C847        C  0.72592074  0.02935288  0.29220865     0.10530
C848        C  0.75223233  0.06149494  0.31854144    -0.06600
C849        C  0.78231544  0.03451490  0.34567896    -0.17830
C850        C  0.78193338  0.98014374  0.34988794     0.10560
S851        S  0.67213867  0.04993009  0.26310438    -0.32800
S852        S  0.80276020  0.95840506  0.39590781    -0.32800
H853        H  0.80365106  0.90490323  0.39071864     0.28570
H854        H  0.64453523  0.07098681  0.29347536     0.28560
H855        H  0.71458725  0.95524314  0.26971538     0.19150
H856        H  0.80297530  0.05625659  0.36660809     0.19160
C857        C  0.79978632  0.14645260  0.33221769    -0.06670
C858        C  0.83843995  0.14336904  0.30424642    -0.17800
C859        C  0.87686693  0.18170708  0.30050721     0.10530
C860        C  0.88007756  0.22204406  0.32733088    -0.06600
C861        C  0.85357002  0.21337374  0.36126847    -0.17830
C862        C  0.81580134  0.17467021  0.36487423     0.10560
S863        S  0.91623923  0.18011019  0.25903958    -0.32800
S864        S  0.80052458  0.15981900  0.41320628    -0.32800
H865        H  0.78095518  0.10976589  0.40891621     0.28570
H866        H  0.96264325  0.17216838  0.27938118     0.28560
H867        H  0.83806416  0.11200006  0.28435662     0.19150
H868        H  0.86218789  0.23652510  0.38567757     0.19160
C869        C  0.58265911  0.22519867  0.18982298    -0.06670
C870        C  0.55684478  0.17767476  0.19553753    -0.17800
C871        C  0.50284728  0.17099547  0.19091290     0.10530
C872        C  0.46788620  0.21457808  0.19002657    -0.06600
C873        C  0.49351185  0.26288305  0.19387193    -0.17830
C874        C  0.54830971  0.26940446  0.18908767     0.10560
S875        S  0.48310369  0.10439168  0.18565461    -0.32800
S876        S  0.56963723  0.33556612  0.18324304    -0.32800
H877        H  0.52103392  0.35651415  0.17262569     0.28570
H878        H  0.53062495  0.08507076  0.17170349     0.28560
H879        H  0.57958163  0.14367058  0.20240362     0.19150
H880        H  0.47211830  0.29640569  0.20261394     0.19160
C881        C  0.67175590  0.19687064  0.22095384    -0.06670
C882        C  0.64602984  0.19813606  0.25525831    -0.17800
C883        C  0.66714736  0.17797133  0.28855028     0.10530
C884        C  0.71686069  0.15093894  0.28924419    -0.06600
C885        C  0.74178896  0.14944407  0.25385412    -0.17830
C886        C  0.72305231  0.17546737  0.22168854     0.10560
S887        S  0.62562620  0.19210222  0.32733744    -0.32800
S888        S  0.76741509  0.18151689  0.18276612    -0.32800
H889        H  0.81348457  0.17056274  0.20283432     0.28570
H890        H  0.57821212  0.18036163  0.30916942     0.28560
H891        H  0.60924233  0.21856572  0.25685434     0.19150
H892        H  0.77562131  0.12591910  0.24988023     0.19160
C893        C  0.79492894  0.44043156  0.19396725    -0.06670
C894        C  0.76540729  0.46741845  0.16658699    -0.17800
C895        C  0.76173194  0.52220110  0.16511878     0.10530
C896        C  0.79412596  0.55369374  0.18842119    -0.06600
C897        C  0.82533108  0.52541953  0.21422581    -0.17830
C898        C  0.81796749  0.47279064  0.22194444     0.10560
S899        S  0.71689030  0.54917555  0.13159750    -0.32800
S900        S  0.83375063  0.45667454  0.27003544    -0.32800
H901        H  0.80719096  0.40995594  0.27312920     0.28570
H902        H  0.69055343  0.50320691  0.12214715     0.28560
H903        H  0.74528725  0.44505150  0.14545943     0.19150
H904        H  0.85580667  0.54383136  0.23017991     0.19160
C905        C  0.83562622  0.35118205  0.21890566    -0.06670
C906        C  0.81495790  0.30583101  0.23509078    -0.17800
C907        C  0.83105977  0.28760187  0.26973382     0.10530
C908        C  0.88003013  0.30248611  0.28485937    -0.06600
C909        C  0.90296132  0.34632112  0.26780348    -0.17830
C910        C  0.88537669  0.36670011  0.23331449     0.10560
S911        S  0.77799252  0.26245957  0.29693793    -0.32800
S912        S  0.92993444  0.41199308  0.21154201    -0.32800
H913        H  0.89804205  0.43405128  0.18437099     0.28570
H914        H  0.78381196  0.29891049  0.32564768     0.28560
H915        H  0.78232747  0.28582508  0.22291919     0.19150
H916        H  0.93683361  0.36390808  0.28069049     0.19160
C917        C  0.74764620  0.35534849  0.18277750    -0.06670
C918        C  0.73134361  0.33325246  0.14842681    -0.17800
C919        C  0.68999938  0.29777367  0.14686648     0.10530
C920        C  0.67073568  0.27660826  0.18076777    -0.06600
C921        C  0.67807054  0.30748009  0.21289601    -0.17830
C922        C  0.71190161  0.34983329  0.21285095     0.10560
S923        S  0.65636855  0.29240466  0.10252739    -0.32800
S924        S  0.71090928  0.39020689  0.25358223    -0.32800
H925        H  0.70615358  0.43625745  0.23285776     0.28570
H926        H  0.61059234  0.27058722  0.11718326     0.28560
H927        H  0.74929903  0.34472113  0.12240171     0.19150
H928        H  0.65709972  0.29872811  0.23828788     0.19160
C929        C  0.96960849  0.27884527  0.68962063    -0.06670
C930        C  0.99602795  0.23428790  0.67721698    -0.17800
C931        C  0.05092704  0.23155495  0.67421091     0.10530
C932        C  0.08311692  0.27378690  0.68692916    -0.06600
C933        C  0.05588312  0.31860970  0.69869772    -0.17830
C934        C  0.00124962  0.32326762  0.69685053     0.10560
S935        S  0.07493669  0.17518283  0.64963504    -0.32800
S936        S  0.97343976  0.38710589  0.70423249    -0.32800
H937        H  0.01934732  0.41558986  0.69801473     0.28570
H938        H  0.03466003  0.14122214  0.66015262     0.28560
H939        H  0.97327939  0.20220515  0.66674752     0.19150
H940        H  0.07800653  0.35223242  0.70729576     0.19160
C941        C  0.76595016  0.05658892  0.69218349    -0.06670
C942        C  0.75510830  0.02943248  0.72547750    -0.17800
C943        C  0.75426369  0.97493795  0.72735672     0.10530
C944        C  0.76474048  0.94425183  0.69470519    -0.06600
C945        C  0.78674606  0.97171178  0.66456687    -0.17830
C946        C  0.78803396  0.02631776  0.66284582     0.10560
S947        S  0.74136458  0.95038258  0.77340775    -0.32800
S948        S  0.81752676  0.05552021  0.62226166    -0.32800
H949        H  0.83279448  0.00981167  0.60387260     0.28570
H950        H  0.79077986  0.92678947  0.77580405     0.28560
H951        H  0.74518242  0.05050708  0.75056669     0.19150
H952        H  0.80106685  0.95000335  0.64110528     0.19160
C953        C  0.80168838  0.14799122  0.67929621    -0.06670
C954        C  0.84449233  0.14490687  0.70405512    -0.17800
C955        C  0.88190196  0.18503655  0.70664097     0.10530
C956        C  0.87857504  0.22910774  0.68240179    -0.06600
C957        C  0.84154065  0.22519770  0.65316859    -0.17830
C958        C  0.80772182  0.18370288  0.64920883     0.10560
S959        S  0.93109832  0.17843146  0.74228697    -0.32800
S960        S  0.78095358  0.17606979  0.60267426    -0.32800
H961        H  0.81822476  0.20555306  0.58322641     0.28570
H962        H  0.92240364  0.12602075  0.75106419     0.28560
H963        H  0.84457909  0.11441459  0.72483899     0.19150
H964        H  0.83654698  0.25513847  0.63252617     0.19160
C965        C  0.57658492  0.22309337  0.81455872    -0.06670
C966        C  0.54897755  0.21545699  0.78046518    -0.17800
C967        C  0.49361067  0.21775534  0.77763252     0.10530
C968        C  0.46284285  0.22486982  0.81043690    -0.06600
C969        C  0.49048513  0.24209083  0.84217260    -0.17830
C970        C  0.54525272  0.24118783  0.84493412     0.10560
S971        S  0.46491138  0.21723860  0.73133256    -0.32800
S972        S  0.57244870  0.26143864  0.88919971    -0.32800
H973        H  0.52831178  0.28736999  0.90317729     0.28570
H974        H  0.51043714  0.20622179  0.71098765     0.28560
H975        H  0.57045493  0.20936266  0.75511682     0.19150
H976        H  0.46844495  0.25310515  0.86652112     0.19160
C977        C  0.66759025  0.18346515  0.78734546    -0.06670
C978        C  0.64346426  0.14526150  0.76513499    -0.17800
C979        C  0.66839108  0.12203433  0.73409360     0.10530
C980        C  0.72072989  0.13685094  0.72378790    -0.06600
C981        C  0.74555642  0.17094826  0.74911658    -0.17830
C982        C  0.72233450  0.18865662  0.78200378     0.10560
S983        S  0.62766309  0.07587212  0.70950929    -0.32800
S984        S  0.76612402  0.21115890  0.81850538    -0.32800
H985        H  0.80838619  0.22509564  0.79564961     0.28570
H986        H  0.66565602  0.04435328  0.69359219     0.28560
H987        H  0.60468011  0.13228466  0.77230010     0.19150
H988        H  0.78452924  0.18362948  0.74516565     0.19160
C989        C  0.79148467  0.44004189  0.81474325    -0.06670
C990        C  0.83994521  0.46556533  0.81118261    -0.17800
C991        C  0.84566377  0.51955434  0.81182365     0.10530
C992        C  0.80095987  0.55270269  0.81364590    -0.06600
C993        C  0.75188152  0.52767550  0.81414274    -0.17830
C994        C  0.74627957  0.47287079  0.81529560     0.10560
S995        S  0.91191681  0.54399152  0.81010306    -0.32800
S996        S  0.68045950  0.44833140  0.81826980    -0.32800
H997        H  0.65389661  0.49414271  0.80845828     0.28570
H998        H  0.93709210  0.49899733  0.82329482     0.28560
H999        H  0.87496699  0.44224421  0.80931853     0.19150
H1000       H  0.71700609  0.55106800  0.81527800     0.19160
C1001       C  0.82750364  0.35759973  0.78415192    -0.06670
C1002       C  0.87677970  0.33323488  0.78920960    -0.17800
C1003       C  0.90555094  0.31099837  0.76006012     0.10530
C1004       C  0.88326284  0.30794147  0.72335096    -0.06600
C1005       C  0.83382908  0.33170605  0.71885325    -0.17830
C1006       C  0.81244308  0.36418194  0.74621075     0.10560
S1007       S  0.96916784  0.28672115  0.77388307    -0.32800
S1008       S  0.77481759  0.41962570  0.73005945    -0.32800
H1009       H  0.78336988  0.41241223  0.69156131     0.28570
H1010       H  0.98086612  0.32746886  0.79864968     0.28560
H1011       H  0.89594551  0.33298140  0.81589762     0.19150
H1012       H  0.81325351  0.32888207  0.69253466     0.19160
C1013       C  0.66369226  0.26885688  0.82219367    -0.06670
C1014       C  0.68490010  0.28869107  0.85583576    -0.17800
C1015       C  0.71997923  0.33045192  0.85620396     0.10530
C1016       C  0.74122860  0.34935675  0.82191141    -0.06600
C1017       C  0.71239828  0.33606641  0.78971712    -0.17830
C1018       C  0.67308028  0.29887561  0.78966278     0.10560
S1019       S  0.73059181  0.36036168  0.90126801    -0.32800
S1020       S  0.64129571  0.28806159  0.74542907    -0.32800
H1021       H  0.59375986  0.30820888  0.75859676     0.28570
H1022       H  0.73946293  0.41023412  0.88681339     0.28560
H1023       H  0.67516718  0.27216641  0.88249505     0.19150
H1024       H  0.71929859  0.35429289  0.76350731     0.19160
loop_ 
_geom_bond_atom_site_label_1 
_geom_bond_atom_site_label_2 
_geom_bond_distance 
_geom_bond_site_symmetry_2 
_ccdc_geom_bond_type 
In1           O3   2.225       .  S
In1           O4   2.189       .  S
In1          O12   2.156       .  S
In1           O6   2.331       .  S
In1           O8   2.241       .  S
In1           O9   2.153       .  S
In1          O10   2.242       .  S
In1          O13   2.279       .  S
C2            O8   1.262       .  A
C2           O10   1.261       .  A
C2           C17   1.548       .  S
O3           C11   1.257   1_655  A
O4           C11   1.255   1_655  A
C5           O12   1.252       .  A
C5            O6   1.273       .  A
C5           C78   1.472       .  S
C7            O9   1.261       .  A
C7           O13   1.272       .  A
C7          C127   1.456       .  S
C11         C231   1.429       .  S
C14          C45   1.551       .  S
C14         C989   1.587       .  S
C14        C1001   1.590       .  S
C14        C1016   1.575       .  S
C15          C19   1.536       .  S
C15         C965   1.598       .  S
C15         C977   1.579       .  S
C15        C1013   1.565       .  S
C16          C32   1.521       .  S
C16         C941   1.583       .  S
C16         C953   1.576       .  S
C16         C980   1.594       .  S
C17         C929   1.568       .  S
C17         C956   1.579       .  S
C17        C1004   1.571       .  S
In18         O20   2.295       .  S
In18         O21   2.197       .  S
In18         O29   2.175       .  S
In18         O23   2.316       .  S
In18         O25   2.293       .  S
In18         O26   2.209       .  S
In18         O27   2.216       .  S
In18         O30   2.244       .  S
C19          O25   1.272       .  A
C19          O27   1.253       .  A
O20          C28   1.262       .  A
O21          C28   1.252       .  A
C22          O29   1.257       .  A
C22          O23   1.272       .  A
C22          C65   1.472   1_556  S
C24          O26   1.257       .  A
C24          O30   1.262       .  A
C24         C252   1.446       .  S
C28         C149   1.463   1_545  S
In31         O33   2.259       .  S
In31         O34   2.175       .  S
In31         O42   2.210       .  S
In31         O36   2.293       .  S
In31         O38   2.285       .  S
In31         O39   2.222       .  S
In31         O40   2.197       .  S
In31         O43   2.228       .  S
C32          O38   1.271       .  A
C32          O40   1.251       .  A
O33          C41   1.266       .  A
O34          C41   1.258       .  A
C35          O42   1.255       .  A
C35          O36   1.261       .  A
C35         C104   1.464       .  S
C37          O39   1.258       .  A
C37          O43   1.258       .  A
C37         C140   1.442   1_545  S
C41         C274   1.449       .  S
In44         O46   2.230       .  S
In44         O47   2.205       .  S
In44         O55   2.187       .  S
In44         O49   2.320       .  S
In44         O51   2.203       .  S
In44         O52   2.220       .  S
In44         O53   2.308       .  S
In44         O56   2.304       .  S
C45          O51   1.249       .  A
C45          O53   1.279       .  A
O46          C54   1.260       .  A
O47          C54   1.256       .  A
C48          O55   1.254       .  A
C48          O49   1.268       .  A
C48          C91   1.474   1_556  S
C50          O52   1.256       .  A
C50          O56   1.267       .  A
C50         C265   1.477   1_655  S
C54         C162   1.434       .  S
C57          C88   1.541       .  S
C57         C893   1.587       .  S
C57         C905   1.574       .  S
C57         C917   1.572       .  S
C58          C62   1.550       .  S
C58         C869   1.609       .  S
C58         C881   1.581       .  S
C58         C920   1.554       .  S
C59         C101   1.531       .  S
C59         C848   1.590       .  S
C59         C857   1.583       .  S
C59         C884   1.615       .  S
C60          C75   1.532       .  S
C60         C833   1.598       .  S
C60         C860   1.555       .  S
C60         C908   1.579       .  S
In61         O63   2.240       .  S
In61         O64   2.198       .  S
In61         O72   2.172       .  S
In61         O66   2.314       .  S
In61         O68   2.289       .  S
In61         O69   2.186       .  S
In61         O70   2.181       .  S
In61         O73   2.291       .  S
C62          O68   1.271       .  A
C62          O70   1.251       .  A
O63          C71   1.260       .  A
O64          C71   1.255       .  A
C65          O72   1.256       .  A
C65          O66   1.273       .  A
C67          O69   1.252       .  A
C67          O73   1.268       .  A
C67         C196   1.462   1_545  S
C71         C304   1.438       .  S
In74         O76   2.285       .  S
In74         O77   2.207       .  S
In74         O85   2.164       .  S
In74         O79   2.329       .  S
In74         O81   2.286       .  S
In74         O82   2.212       .  S
In74         O83   2.207       .  S
In74         O86   2.232       .  S
C75          O81   1.274       .  A
C75          O83   1.248       .  A
O76          C84   1.262       .  A
O77          C84   1.257       .  A
C78          O85   1.254       .  A
C78          O79   1.271       .  A
C80          O82   1.261       .  A
C80          O86   1.262       .  A
C80         C321   1.443   1_655  S
C84         C205   1.465       .  S
In87         O89   2.282       .  S
In87         O90   2.198       .  S
In87         O98   2.185       .  S
In87         O92   2.324       .  S
In87         O94   2.217       .  S
In87         O95   2.203       .  S
In87         O96   2.298       .  S
In87         O99   2.239       .  S
C88          O94   1.252       .  A
C88          O96   1.275       .  A
O89          C97   1.266       .  A
O90          C97   1.257       .  A
C91          O98   1.252       .  A
C91          O92   1.270       .  A
C93          O95   1.257       .  A
C93          O99   1.261       .  A
C93         C183   1.440       .  S
C97         C291   1.463   1_655  S
In100       O102   2.236       .  S
In100       O103   2.211       .  S
In100       O111   2.197       .  S
In100       O105   2.289       .  S
In100       O107   2.294       .  S
In100       O108   2.183       .  S
In100       O109   2.210       .  S
In100       O112   2.285       .  S
C101        O107   1.274       .  A
C101        O109   1.253       .  A
O102        C110   1.261       .  A
O103        C110   1.258       .  A
C104        O111   1.254       .  A
C104        O105   1.267       .  A
C106        O108   1.258       .  A
C106        O112   1.265       .  A
C106        C334   1.456       .  S
C110        C218   1.445   1_545  S
C113        C118   1.541       .  S
C113        C797   1.589       .  S
C113        C809   1.599       .  S
C113        C821   1.586       .  S
C114        C131   1.539       .  S
C114        C785   1.575       .  S
C114        C824   1.580       .  S
C114        C944   1.588       .  S
C115        C144   1.553       .  S
C115        C761   1.586       .  S
C115        C776   1.579       .  S
C115        C788   1.571       .  S
C116        C157   1.539       .  S
C116        C773   1.583       .  S
C116        C812   1.580       .  S
C116        C992   1.583       .  S
In117       O119   2.302       .  S
In117       O120   2.156       .  S
In117       O128   2.149       .  S
In117       O122   2.317       .  S
In117       O124   2.205       .  S
In117       O125   2.200       .  S
In117       O126   2.299       .  S
In117       O129   2.226       .  S
C118        O124   1.250       .  A
C118        O126   1.274       .  A
O119        C127   1.268       .  A
O120        C127   1.253       .  A
C121        O128   1.249       .  A
C121        O122   1.269       .  A
C121        C203   1.459       .  S
C123        O125   1.259       .  A
C123        O129   1.264       .  A
C123        C377   1.435   1_655  S
In130       O132   2.228       .  S
In130       O133   2.218       .  S
In130       O141   2.195       .  S
In130       O135   2.307       .  S
In130       O137   2.295       .  S
In130       O138   2.176       .  S
In130       O139   2.228       .  S
In130       O142   2.283       .  S
C131        O137   1.274       .  A
C131        O139   1.252       .  A
O132        C140   1.260       .  A
O133        C140   1.258       .  A
C134        O141   1.253       .  A
C134        O135   1.266       .  A
C134        C216   1.468       .  S
C136        O138   1.256       .  A
C136        O142   1.265       .  A
C136        C347   1.457       .  S
In143       O145   2.232       .  S
In143       O146   2.208       .  S
In143       O154   2.153       .  S
In143       O148   2.327       .  S
In143       O150   2.271       .  S
In143       O151   2.177       .  S
In143       O152   2.220       .  S
In143       O155   2.294       .  S
C144        O150   1.260       .  A
C144        O152   1.261       .  A
O145        C153   1.258       .  A
O146        C153   1.255       .  A
C147        O154   1.253       .  A
C147        O148   1.271       .  A
C147        C190   1.467   1_556  S
C149        O151   1.257       .  A
C149        O155   1.269       .  A
C153        C386   1.439       .  S
In156       O158   2.257       .  S
In156       O159   2.170       .  S
In156       O167   2.159       .  S
In156       O161   2.297       .  S
In156       O163   2.244       .  S
In156       O164   2.202       .  S
In156       O165   2.217       .  S
In156       O168   2.231       .  S
C157        O163   1.253       .  A
C157        O165   1.260       .  A
O158        C166   1.270       .  A
O159        C166   1.262       .  A
C160        O167   1.251       .  A
C160        O161   1.267       .  A
C160        C177   1.454   1_556  S
C162        O164   1.253       .  A
C162        O168   1.256       .  A
C166        C360   1.453   1_655  S
C169        C200   1.525       .  S
C169        C725   1.605       .  S
C169        C737   1.567       .  S
C169        C749   1.572       .  S
C170        C213   1.537       .  S
C170        C713   1.588       .  S
C170        C752   1.579       .  S
C170        C845   1.590       .  S
C171        C174   1.522       .  S
C171        C701   1.590       .  S
C171        C740   1.598       .  S
C171        C896   1.602       .  S
C172        C187   1.556       .  S
C172        C689   1.573       .  S
C172        C704   1.589       .  S
C172        C716   1.582       .  S
In173       O175   2.236       .  S
In173       O176   2.199       .  S
In173       O184   2.170       .  S
In173       O178   2.285       .  S
In173       O180   2.252       .  S
In173       O181   2.195       .  S
In173       O182   2.198       .  S
In173       O185   2.279       .  S
C174        O180   1.267       .  A
C174        O182   1.254       .  A
O175        C183   1.260       .  A
O176        C183   1.256       .  A
C177        O184   1.255       .  A
C177        O178   1.266       .  A
C179        O181   1.256       .  A
C179        O185   1.265       .  A
C179        C407   1.459   1_655  S
In186       O188   2.282       .  S
In186       O189   2.191       .  S
In186       O197   2.158       .  S
In186       O191   2.321       .  S
In186       O193   2.291       .  S
In186       O194   2.217       .  S
In186       O195   2.194       .  S
In186       O198   2.236       .  S
C187        O193   1.273       .  A
C187        O195   1.251       .  A
O188        C196   1.264       .  A
O189        C196   1.259       .  A
C190        O197   1.253       .  A
C190        O191   1.272       .  A
C192        O194   1.263       .  A
C192        O198   1.261       .  A
C192        C433   1.447       .  S
In199       O201   2.239       .  S
In199       O202   2.202       .  S
In199       O210   2.141       .  S
In199       O204   2.299       .  S
In199       O206   2.316       .  S
In199       O207   2.194       .  S
In199       O208   2.132       .  S
In199       O211   2.301       .  S
C200        O206   1.272       .  A
C200        O208   1.250       .  A
O201        C209   1.261       .  A
O202        C209   1.254       .  A
C203        O210   1.257       .  A
C203        O204   1.272       .  A
C205        O207   1.251       .  A
C205        O211   1.267       .  A
C209        C442   1.440   1_655  S
In212       O214   2.291       .  S
In212       O215   2.198       .  S
In212       O223   2.190       .  S
In212       O217   2.295       .  S
In212       O219   2.271       .  S
In212       O220   2.214       .  S
In212       O221   2.201       .  S
In212       O224   2.236       .  S
C213        O219   1.275       .  A
C213        O221   1.255       .  A
O214        C222   1.265       .  A
O215        C222   1.255       .  A
C216        O223   1.257       .  A
C216        O217   1.268       .  A
C218        O220   1.257       .  A
C218        O224   1.259       .  A
C222        C416   1.464       .  S
In225       O227   2.289       .  S
In225       O228   2.184       .  S
In225       O236   2.156       .  S
In225       O230   2.301       .  S
In225       O232   2.254       .  S
In225       O233   2.179       .  S
In225       O234   2.198       .  S
In225       O237   2.220       .  S
C226        O232   1.275       .  A
C226        O234   1.254       .  A
C226        C239   1.546       .  S
O227        C235   1.264       .  A
O228        C235   1.252       .  A
C229        O236   1.257       .  A
C229        O230   1.273       .  A
C229        C315   1.464       .  S
C231        O233   1.258       .  A
C231        O237   1.261       .  A
C235        C373   1.457       .  S
C238        C269   1.521       .  S
C238        C653   1.597       .  S
C238        C665   1.578       .  S
C238        C677   1.555       .  S
C239        C641   1.598       .  S
C239        C680   1.576       .  S
C239        C932   1.588       .  S
C240        C243   1.530       .  S
C240        C629   1.577       .  S
C240        C668   1.580       .  S
C240        C968   1.591       .  S
C241        C256   1.563       .  S
C241        C620   1.606       .  S
C241        C632   1.582       .  S
C241        C644   1.587       .  S
In242       O244   2.241       .  S
In242       O245   2.212       .  S
In242       O253   2.167       .  S
In242       O247   2.322       .  S
In242       O249   2.309       .  S
In242       O250   2.183       .  S
In242       O251   2.179       .  S
In242       O254   2.282       .  S
C243        O249   1.276       .  A
C243        O251   1.248       .  A
O244        C252   1.263       .  A
O245        C252   1.260       .  A
C246        O253   1.253       .  A
C246        O247   1.271       .  A
C246        C302   1.469   1_556  S
C248        O250   1.256       .  A
C248        O254   1.264       .  A
C248        C390   1.458   1_545  S
In255       O257   2.299       .  S
In255       O258   2.212       .  S
In255       O266   2.175       .  S
In255       O260   2.288       .  S
In255       O262   2.277       .  S
In255       O263   2.222       .  S
In255       O264   2.226       .  S
In255       O267   2.241       .  S
C256        O262   1.270       .  A
C256        O264   1.258       .  A
O257        C265   1.268       .  A
O258        C265   1.259       .  A
C259        O266   1.256       .  A
C259        O260   1.269       .  A
C259        C289   1.461   1_556  S
C261        O263   1.257       .  A
C261        O267   1.255       .  A
C261        C364   1.445       .  S
In268       O270   2.225       .  S
In268       O271   2.215       .  S
In268       O279   2.199       .  S
In268       O273   2.295       .  S
In268       O275   2.279       .  S
In268       O276   2.180       .  S
In268       O277   2.182       .  S
In268       O280   2.261       .  S
C269        O275   1.274       .  A
C269        O277   1.249       .  A
O270        C278   1.260       .  A
O271        C278   1.260       .  A
C272        O279   1.256       .  A
C272        O273   1.266       .  A
C272        C328   1.468       .  S
C274        O276   1.257       .  A
C274        O280   1.265       .  A
C278        C343   1.442   1_545  S
C281        C312   1.532       .  S
C281        C593   1.576       .  S
C281        C605   1.568       .  S
C281        C836   1.590       .  S
C282        C325   1.541       .  S
C282        C569   1.595       .  S
C282        C581   1.563       .  S
C282        C608   1.559       .  S
C283        C286   1.531       .  S
C283        C548   1.597       .  S
C283        C557   1.571       .  S
C283        C596   1.590       .  S
C284        C299   1.531       .  S
C284        C560   1.577       .  S
C284        C584   1.575       .  S
C284        C872   1.606       .  S
In285       O287   2.235       .  S
In285       O288   2.209       .  S
In285       O296   2.179       .  S
In285       O290   2.291       .  S
In285       O292   2.283       .  S
In285       O293   2.200       .  S
In285       O294   2.231       .  S
In285       O297   2.290       .  S
C286        O292   1.272       .  A
C286        O294   1.257       .  A
O287        C295   1.257       .  A
O288        C295   1.253       .  A
C289        O296   1.256       .  A
C289        O290   1.267       .  A
C291        O293   1.256       .  A
C291        O297   1.267       .  A
C295        C403   1.439       .  S
In298       O300   2.283       .  S
In298       O301   2.176       .  S
In298       O309   2.159       .  S
In298       O303   2.325       .  S
In298       O305   2.243       .  S
In298       O306   2.203       .  S
In298       O307   2.227       .  S
In298       O310   2.232       .  S
C299        O305   1.261       .  A
C299        O307   1.259       .  A
O300        C308   1.269       .  A
O301        C308   1.260       .  A
C302        O309   1.254       .  A
C302        O303   1.271       .  A
C304        O306   1.257       .  A
C304        O310   1.257       .  A
C308        C429   1.461   1_545  S
In311       O313   2.241       .  S
In311       O314   2.209       .  S
In311       O322   2.159       .  S
In311       O316   2.303       .  S
In311       O318   2.273       .  S
In311       O319   2.187       .  S
In311       O320   2.193       .  S
In311       O323   2.287       .  S
C312        O318   1.271       .  A
C312        O320   1.252       .  A
O313        C321   1.261       .  A
O314        C321   1.256       .  A
C315        O322   1.257       .  A
C315        O316   1.272       .  A
C317        O319   1.252       .  A
C317        O323   1.265       .  A
C317        C446   1.459       .  S
In324       O326   2.276       .  S
In324       O327   2.184       .  S
In324       O335   2.197       .  S
In324       O329   2.293       .  S
In324       O331   2.313       .  S
In324       O332   2.227       .  S
In324       O333   2.169       .  S
In324       O336   2.254       .  S
C325        O331   1.273       .  A
C325        O333   1.250       .  A
O326        C334   1.266       .  A
O327        C334   1.253       .  A
C328        O335   1.257       .  A
C328        O329   1.269       .  A
C330        O332   1.253       .  A
C330        O336   1.259       .  A
C330        C420   1.451   1_545  S
In337       O339   2.285       .  S
In337       O340   2.178       .  S
In337       O348   2.194       .  S
In337       O342   2.296       .  S
In337       O344   2.260       .  S
In337       O345   2.212       .  S
In337       O346   2.205       .  S
In337       O349   2.232       .  S
C338        O344   1.273       .  A
C338        O346   1.254       .  A
C338        C353   1.535       .  S
O339        C347   1.266       .  A
O340        C347   1.253       .  A
C341        O348   1.258       .  A
C341        O342   1.270       .  A
C341        C414   1.471       .  S
C343        O345   1.255       .  A
C343        O349   1.259       .  A
C350        C381   1.538       .  S
C350        C521   1.591       .  S
C350        C533   1.577       .  S
C350        C764   1.587       .  S
C351        C355   1.528       .  S
C351        C509   1.564       .  S
C351        C536   1.596       .  S
C351        C617   1.619       .  S
C352        C368   1.532       .  S
C352        C497   1.574       .  S
C352        C512   1.575       .  S
C352        C800   1.580       .  S
C353        C500   1.566       .  S
C353        C524   1.576       .  S
C353        C656   1.598       .  S
In354       O356   2.232       .  S
In354       O357   2.217       .  S
In354       O365   2.228       .  S
In354       O359   2.264       .  S
In354       O361   2.199       .  S
In354       O362   2.190       .  S
In354       O363   2.275       .  S
In354       O366   2.284       .  S
C355        O361   1.248       .  A
C355        O363   1.268       .  A
O356        C364   1.260       .  A
O357        C364   1.256       .  A
C358        O365   1.255       .  A
C358        O359   1.260       .  A
C358        C401   1.459   1_556  S
C360        O362   1.256       .  A
C360        O366   1.265       .  A
In367       O369   2.223       .  S
In367       O370   2.208       .  S
In367       O378   2.140       .  S
In367       O372   2.310       .  S
In367       O374   2.245       .  S
In367       O375   2.171       .  S
In367       O376   2.204       .  S
In367       O379   2.276       .  S
C368        O374   1.259       .  A
C368        O376   1.257       .  A
O369        C377   1.256       .  A
O370        C377   1.256       .  A
C371        O378   1.256       .  A
C371        O372   1.272       .  A
C371        C440   1.463       .  S
C373        O375   1.260       .  A
C373        O379   1.269       .  A
In380       O382   2.280       .  S
In380       O383   2.158       .  S
In380       O391   2.158       .  S
In380       O385   2.325       .  S
In380       O387   2.231       .  S
In380       O388   2.212       .  S
In380       O389   2.266       .  S
In380       O392   2.231       .  S
C381        O387   1.260       .  A
C381        O389   1.262       .  A
O382        C390   1.272       .  A
O383        C390   1.259       .  A
C384        O391   1.252       .  A
C384        O385   1.272       .  A
C384        C427   1.471   1_556  S
C386        O388   1.257       .  A
C386        O392   1.258       .  A
C393        C424   1.562       .  S
C393        C473   1.593       .  S
C393        C485   1.563       .  S
C393        C692   1.613       .  S
C394        C398   1.547       .  S
C394        C461   1.572       .  S
C394        C488   1.582       .  S
C394        C545   1.602       .  S
C395        C437   1.547       .  S
C395        C449   1.573       .  S
C395        C464   1.568       .  S
C395        C728   1.588       .  S
C396        C411   1.552       .  S
C396        C452   1.576       .  S
C396        C476   1.613       .  S
C396        C572   1.605       .  S
In397       O399   2.282       .  S
In397       O400   2.187       .  S
In397       O408   2.226       .  S
In397       O402   2.256       .  S
In397       O404   2.263       .  S
In397       O405   2.215       .  S
In397       O406   2.198       .  S
In397       O409   2.227       .  S
C398        O404   1.272       .  A
C398        O406   1.250       .  A
O399        C407   1.266       .  A
O400        C407   1.257       .  A
C401        O408   1.257       .  A
C401        O402   1.259       .  A
C403        O405   1.257       .  A
C403        O409   1.257       .  A
In410       O412   2.242       .  S
In410       O413   2.232       .  S
In410       O421   2.198       .  S
In410       O415   2.300       .  S
In410       O417   2.297       .  S
In410       O418   2.203       .  S
In410       O419   2.213       .  S
In410       O422   2.284       .  S
C411        O417   1.272       .  A
C411        O419   1.255       .  A
O412        C420   1.255       .  A
O413        C420   1.257       .  A
C414        O421   1.258       .  A
C414        O415   1.269       .  A
C416        O418   1.255       .  A
C416        O422   1.264       .  A
In423       O425   2.246       .  S
In423       O426   2.207       .  S
In423       O434   2.163       .  S
In423       O428   2.321       .  S
In423       O430   2.302       .  S
In423       O431   2.193       .  S
In423       O432   2.189       .  S
In423       O435   2.293       .  S
C424        O430   1.276       .  A
C424        O432   1.251       .  A
O425        C433   1.264       .  A
O426        C433   1.255       .  A
C427        O434   1.256       .  A
C427        O428   1.272       .  A
C429        O431   1.251       .  A
C429        O435   1.263       .  A
In436       O438   2.280       .  S
In436       O439   2.175       .  S
In436       O447   2.140       .  S
In436       O441   2.318       .  S
In436       O443   2.241       .  S
In436       O444   2.210       .  S
In436       O445   2.241       .  S
In436       O448   2.229       .  S
C437        O443   1.258       .  A
C437        O445   1.266       .  A
O438        C446   1.268       .  A
O439        C446   1.260       .  A
C440        O447   1.252       .  A
C440        O441   1.273       .  A
C442        O444   1.260       .  A
C442        O448   1.258       .  A
C449        C450   1.407       .  A
C449        C454   1.425       .  A
C450        C451   1.401       .  A
C450        H459   1.073       .  S
C451        C452   1.435       .  A
C451        S455   1.804       .  S
C452        C453   1.418       .  A
C453        C454   1.407       .  A
C453        H460   1.082       .  S
C454        S456   1.807       .  S
S455        H458   1.408       .  S
S456        H457   1.396       .  S
C461        C462   1.416       .  A
C461        C466   1.421       .  A
C462        C463   1.399       .  A
C462        H471   1.082       .  S
C463        C464   1.426       .  A
C463        S467   1.808       .  S
C464        C465   1.413       .  A
C465        C466   1.397       .  A
C465        H472   1.078       .  S
C466        S468   1.801       .  S
S467        H470   1.407       .  S
S468        H469   1.403       .  S
C473        C474   1.411       .  A
C473        C478   1.415       .  A
C474        C475   1.412       .  A
C474        H483   1.075       .  S
C475        C476   1.443       .  A
C475        S479   1.789       .  S
C476        C477   1.423       .  A
C477        C478   1.403       .  A
C477        H484   1.079       .  S
C478        S480   1.785       .  S
S479        H482   1.409       .  S
S480        H481   1.406       .  S
C485        C486   1.403       .  A
C485        C490   1.424       .  A
C486        C487   1.421       .  A
C486        H495   1.074       .  S
C487        C488   1.429       .  A
C487        S491   1.801       .  S
C488        C489   1.417       .  A
C489        C490   1.384       .  A
C489        H496   1.081       .  S
C490        S492   1.814       .  S
S491        H494   1.406       .  S
S492        H493   1.408       .  S
C497        C498   1.412       .  A
C497        C502   1.423       .  A
C498        C499   1.405       .  A
C498        H507   1.075       .  S
C499        C500   1.429       .  A
C499        S503   1.799       .  S
C500        C501   1.408       .  A
C501        C502   1.400       .  A
C501        H508   1.076       .  S
C502        S504   1.798       .  S
S503        H506   1.408       .  S
S504        H505   1.401       .  S
C509        C510   1.405       .  A
C509        C514   1.430       .  A
C510        C511   1.397       .  A
C510        H519   1.085       .  S
C511        C512   1.434       .  A
C511        S515   1.802       .  S
C512        C513   1.407       .  A
C513        C514   1.392       .  A
C513        H520   1.077       .  S
C514        S516   1.800       .  S
S515        H518   1.395       .  S
S516        H517   1.409       .  S
C521        C522   1.408       .  A
C521        C526   1.438       .  A
C522        C523   1.401       .  A
C522        H531   1.079       .  S
C523        C524   1.425       .  A
C523        S527   1.796       .  S
C524        C525   1.403       .  A
C525        C526   1.414       .  A
C525        H532   1.077       .  S
C526        S528   1.801       .  S
S527        H530   1.407       .  S
S528        H529   1.406       .  S
C533        C534   1.404       .  A
C533        C538   1.430       .  A
C534        C535   1.379       .  A
C534        H543   1.083       .  S
C535        C536   1.433       .  A
C535        S539   1.809       .  S
C536        C537   1.421       .  A
C537        C538   1.436       .  A
C537        H544   1.076       .  S
C538        S540   1.804       .  S
S539        H542   1.408       .  S
S540        H541   1.407       .  S
C545        C546   1.419       .  A
C545        C550   1.431       .  A
C546        C547   1.415       .  A
C546        H555   1.084       .  S
C547        C548   1.439       .  A
C547        S551   1.812       .  S
C548        C549   1.417       .  A
C549        C550   1.409       .  A
C549        H556   1.071       .  S
C550        S552   1.799       .  S
S551        H554   1.393       .  S
S552        H553   1.407       .  S
C557        C558   1.406       .  A
C557        C562   1.428       .  A
C558        C559   1.388       .  A
C558        H567   1.074       .  S
C559        C560   1.432       .  A
C559        S563   1.815       .  S
C560        C561   1.414       .  A
C561        C562   1.416       .  A
C561        H568   1.071       .  S
C562        S564   1.804       .  S
S563        H566   1.407       .  S
S564        H565   1.408       .  S
C569        C570   1.406       .  A
C569        C574   1.443       .  A
C570        C571   1.390   1_545  A
C570        H579   1.078       .  S
C571        C572   1.425       .  A
C571        S575   1.784       .  S
C572        C573   1.404       .  A
C573        C574   1.435   1_565  A
C573        H580   1.079       .  S
C574        S576   1.800       .  S
S575        H578   1.408       .  S
S576        H577   1.406       .  S
C581        C582   1.414       .  A
C581        C586   1.413       .  A
C582        C583   1.400       .  A
C582        H591   1.083       .  S
C583        C584   1.424       .  A
C583        S587   1.797       .  S
C584        C585   1.419       .  A
C585        C586   1.401       .  A
C585        H592   1.069       .  S
C586        S588   1.798       .  S
S587        H590   1.407       .  S
S588        H589   1.394       .  S
C593        C594   1.394       .  A
C593        C598   1.429       .  A
C594        C595   1.388       .  A
C594        H603   1.071       .  S
C595        C596   1.437       .  A
C595        S599   1.806       .  S
C596        C597   1.419       .  A
C597        C598   1.416       .  A
C597        H604   1.082       .  S
C598        S600   1.808       .  S
S599        H602   1.406       .  S
S600        H601   1.406       .  S
C605        C606   1.414       .  A
C605        C610   1.414       .  A
C606        C607   1.412       .  A
C606        H615   1.080       .  S
C607        C608   1.427       .  A
C607        S611   1.797       .  S
C608        C609   1.407       .  A
C609        C610   1.384       .  A
C609        H616   1.075       .  S
C610        S612   1.799       .  S
S611        H614   1.406       .  S
S612        H613   1.404       .  S
C617        C618   1.419       .  A
C617        C622   1.443       .  A
C618        C619   1.430       .  A
C618        H627   1.068       .  S
C619        C620   1.438       .  A
C619        S623   1.797       .  S
C620        C621   1.406       .  A
C621        C622   1.405       .  A
C621        H628   1.082       .  S
C622        S624   1.803       .  S
S623        H626   1.406       .  S
S624        H625   1.409       .  S
C629        C630   1.409       .  A
C629        C634   1.427       .  A
C630        C631   1.412       .  A
C630        H639   1.081       .  S
C631        C632   1.433       .  A
C631        S635   1.805       .  S
C632        C633   1.412       .  A
C633        C634   1.406       .  A
C633        H640   1.074       .  S
C634        S636   1.810       .  S
S635        H638   1.406       .  S
S636        H637   1.407       .  S
C641        C642   1.404       .  A
C641        C646   1.448       .  A
C642        C643   1.404       .  A
C642        H651   1.070       .  S
C643        C644   1.435       .  A
C643        S647   1.800       .  S
C644        C645   1.404       .  A
C645        C646   1.406       .  A
C645        H652   1.079       .  S
C646        S648   1.803       .  S
S647        H650   1.404       .  S
S648        H649   1.397       .  S
C653        C654   1.417       .  A
C653        C658   1.426       .  A
C654        C655   1.425   1_545  A
C654        H663   1.081       .  S
C655        C656   1.437       .  A
C655        S659   1.797       .  S
C656        C657   1.408       .  A
C657        C658   1.396   1_565  A
C657        H664   1.074       .  S
C658        S660   1.789       .  S
S659        H662   1.408       .  S
S660        H661   1.406       .  S
C665        C666   1.414       .  A
C665        C670   1.420       .  A
C666        C667   1.420       .  A
C666        H675   1.082       .  S
C667        C668   1.443       .  A
C667        S671   1.809       .  S
C668        C669   1.407       .  A
C669        C670   1.387       .  A
C669        H676   1.073       .  S
C670        S672   1.802       .  S
S671        H674   1.390       .  S
S672        H673   1.407       .  S
C677        C678   1.408       .  A
C677        C682   1.432       .  A
C678        C679   1.407       .  A
C678        H687   1.082       .  S
C679        C680   1.432       .  A
C679        S683   1.804       .  S
C680        C681   1.407       .  A
C681        C682   1.393       .  A
C681        H688   1.074       .  S
C682        S684   1.809       .  S
S683        H686   1.407       .  S
S684        H685   1.408       .  S
C689        C690   1.411       .  A
C689        C694   1.432       .  A
C690        C691   1.422       .  A
C690        H699   1.080       .  S
C691        C692   1.453       .  A
C691        S695   1.811       .  S
C692        C693   1.418       .  A
C693        C694   1.395       .  A
C693        H700   1.080       .  S
C694        S696   1.827       .  S
S695        H698   1.381       .  S
S696        H697   1.391       .  S
C701        C702   1.412       .  A
C701        C706   1.436       .  A
C702        C703   1.411       .  A
C702        H711   1.071       .  S
C703        C704   1.423       .  A
C703        S707   1.798       .  S
C704        C705   1.419       .  A
C705        C706   1.407       .  A
C705        H712   1.077       .  S
C706        S708   1.818       .  S
S707        H710   1.407       .  S
S708        H709   1.407       .  S
C713        C714   1.410       .  A
C713        C718   1.418       .  A
C714        C715   1.401       .  A
C714        H723   1.077       .  S
C715        C716   1.449       .  A
C715        S719   1.823       .  S
C716        C717   1.415       .  A
C717        C718   1.407       .  A
C717        H724   1.077       .  S
C718        S720   1.806       .  S
S719        H722   1.387       .  S
S720        H721   1.407       .  S
C725        C726   1.416       .  A
C725        C730   1.434       .  A
C726        C727   1.400   1_655  A
C726        H735   1.078       .  S
C727        C728   1.428       .  A
C727        S731   1.811       .  S
C728        C729   1.420       .  A
C729        C730   1.422   1_455  A
C729        H736   1.081       .  S
C730        S732   1.808       .  S
S731        H734   1.408       .  S
S732        H733   1.402       .  S
C737        C738   1.400       .  A
C737        C742   1.437       .  A
C738        C739   1.399       .  A
C738        H747   1.078       .  S
C739        C740   1.445       .  A
C739        S743   1.800       .  S
C740        C741   1.418       .  A
C741        C742   1.396       .  A
C741        H748   1.076       .  S
C742        S744   1.811       .  S
S743        H746   1.410       .  S
S744        H745   1.399       .  S
C749        C750   1.418       .  A
C749        C754   1.417       .  A
C750        C751   1.426       .  A
C750        H759   1.080       .  S
C751        C752   1.440       .  A
C751        S755   1.797       .  S
C752        C753   1.409       .  A
C753        C754   1.381       .  A
C753        H760   1.082       .  S
C754        S756   1.800       .  S
S755        H758   1.401       .  S
S756        H757   1.399       .  S
C761        C762   1.422       .  A
C761        C766   1.422       .  A
C762        C763   1.433       .  A
C762        H771   1.079       .  S
C763        C764   1.430       .  A
C763        S767   1.804       .  S
C764        C765   1.411       .  A
C765        C766   1.393       .  A
C765        H772   1.069       .  S
C766        S768   1.813       .  S
S767        H770   1.407       .  S
S768        H769   1.405       .  S
C773        C774   1.417       .  A
C773        C778   1.427       .  A
C774        C775   1.412       .  A
C774        H783   1.081       .  S
C775        C776   1.427       .  A
C775        S779   1.810       .  S
C776        C777   1.413       .  A
C777        C778   1.405       .  A
C777        H784   1.075       .  S
C778        S780   1.799       .  S
S779        H782   1.406       .  S
S780        H781   1.404       .  S
C785        C786   1.410       .  A
C785        C790   1.437       .  A
C786        C787   1.393       .  A
C786        H795   1.065       .  S
C787        C788   1.422       .  A
C787        S791   1.797       .  S
C788        C789   1.413       .  A
C789        C790   1.404       .  A
C789        H796   1.079       .  S
C790        S792   1.804       .  S
S791        H794   1.396       .  S
S792        H793   1.397       .  S
C797        C798   1.409   1_655  A
C797        C802   1.440   1_655  A
C798        C799   1.402       .  A
C798        H807   1.069   1_455  S
C799        C800   1.428       .  A
C799        S803   1.815       .  S
C800        C801   1.412       .  A
C801        C802   1.418       .  A
C801        H808   1.082       .  S
C802        S804   1.802   1_455  S
S803        H806   1.407       .  S
S804        H805   1.404       .  S
C809        C810   1.408       .  A
C809        C814   1.441       .  A
C810        C811   1.401       .  A
C810        H819   1.060       .  S
C811        C812   1.423       .  A
C811        S815   1.799       .  S
C812        C813   1.405       .  A
C813        C814   1.406       .  A
C813        H820   1.077       .  S
C814        S816   1.802       .  S
S815        H818   1.408       .  S
S816        H817   1.407       .  S
C821        C822   1.418       .  A
C821        C826   1.443       .  A
C822        C823   1.388       .  A
C822        H831   1.077       .  S
C823        C824   1.422       .  A
C823        S827   1.808       .  S
C824        C825   1.410       .  A
C825        C826   1.415       .  A
C825        H832   1.083       .  S
C826        S828   1.818       .  S
S827        H830   1.398       .  S
S828        H829   1.397       .  S
C833        C834   1.407       .  A
C833        C838   1.434   1_655  A
C834        C835   1.398   1_655  A
C834        H843   1.074       .  S
C835        C836   1.433       .  A
C835        S839   1.817       .  S
C836        C837   1.417       .  A
C837        C838   1.419       .  A
C837        H844   1.081       .  S
C838        S840   1.795   1_455  S
S839        H842   1.395       .  S
S840        H841   1.407       .  S
C845        C846   1.428       .  A
C845        C850   1.432       .  A
C846        C847   1.408   1_565  A
C846        H855   1.077       .  S
C847        C848   1.424       .  A
C847        S851   1.803       .  S
C848        C849   1.419       .  A
C849        C850   1.411   1_545  A
C849        H856   1.074       .  S
C850        S852   1.817       .  S
S851        H854   1.407       .  S
S852        H853   1.393       .  S
C857        C858   1.413       .  A
C857        C862   1.436       .  A
C858        C859   1.404       .  A
C858        H867   1.078       .  S
C859        C860   1.418       .  A
C859        S863   1.798       .  S
C860        C861   1.412       .  A
C861        C862   1.399       .  A
C861        H868   1.080       .  S
C862        S864   1.815       .  S
S863        H866   1.407       .  S
S864        H865   1.395       .  S
C869        C870   1.410       .  A
C869        C874   1.439       .  A
C870        C871   1.404       .  A
C870        H879   1.080       .  S
C871        C872   1.437       .  A
C871        S875   1.802       .  S
C872        C873   1.417       .  A
C873        C874   1.426       .  A
C873        H880   1.071       .  S
C874        S876   1.806       .  S
S875        H878   1.408       .  S
S876        H877   1.408       .  S
C881        C882   1.396       .  A
C881        C886   1.425       .  A
C882        C883   1.405       .  A
C882        H891   1.081       .  S
C883        C884   1.451       .  A
C883        S887   1.789       .  S
C884        C885   1.421       .  A
C885        C886   1.414       .  A
C885        H892   1.067       .  S
C886        S888   1.808       .  S
S887        H890   1.410       .  S
S888        H889   1.408       .  S
C893        C894   1.417       .  A
C893        C898   1.430       .  A
C894        C895   1.417       .  A
C894        H903   1.081       .  S
C895        C896   1.429       .  A
C895        S899   1.797       .  S
C896        C897   1.420       .  A
C897        C898   1.399       .  A
C897        H904   1.077       .  S
C898        S900   1.814       .  S
S899        H902   1.407       .  S
S900        H901   1.390       .  S
C905        C906   1.411       .  A
C905        C910   1.432       .  A
C906        C907   1.386       .  A
C906        H915   1.075       .  S
C907        C908   1.419       .  A
C907        S911   1.798       .  S
C908        C909   1.415       .  A
C909        C910   1.413       .  A
C909        H916   1.082       .  S
C910        S912   1.814       .  S
S911        H914   1.400       .  S
S912        H913   1.389       .  S
C917        C918   1.417       .  A
C917        C922   1.423       .  A
C918        C919   1.403       .  A
C918        H927   1.082       .  S
C919        C920   1.421       .  A
C919        S923   1.808       .  S
C920        C921   1.411       .  A
C921        C922   1.397       .  A
C921        H928   1.081       .  S
C922        S924   1.792       .  S
S923        H926   1.406       .  S
S924        H925   1.405       .  S
C929        C930   1.406       .  A
C929        C934   1.429   1_655  A
C930        C931   1.413   1_655  A
C930        H939   1.080       .  S
C931        C932   1.441       .  A
C931        S935   1.808       .  S
C932        C933   1.415       .  A
C933        C934   1.407       .  A
C933        H940   1.081       .  S
C934        S936   1.813   1_455  S
S935        H938   1.408       .  S
S936        H937   1.407   1_655  S
C941        C942   1.410       .  A
C941        C946   1.427       .  A
C942        C943   1.408   1_545  A
C942        H951   1.080       .  S
C943        C944   1.437       .  A
C943        S947   1.797       .  S
C944        C945   1.410       .  A
C945        C946   1.411   1_565  A
C945        H952   1.075       .  S
C946        S948   1.805       .  S
S947        H950   1.406       .  S
S948        H949   1.406       .  S
C953        C954   1.409       .  A
C953        C958   1.426       .  A
C954        C955   1.416       .  A
C954        H963   1.082       .  S
C955        C956   1.432       .  A
C955        S959   1.798       .  S
C956        C957   1.413       .  A
C957        C958   1.386       .  A
C957        H964   1.076       .  S
C958        S960   1.809       .  S
S959        H962   1.407       .  S
S960        H961   1.408       .  S
C965        C966   1.422       .  A
C965        C970   1.432       .  A
C966        C967   1.424       .  A
C966        H975   1.074       .  S
C967        C968   1.428       .  A
C967        S971   1.810       .  S
C968        C969   1.408       .  A
C969        C970   1.407       .  A
C969        H976   1.078       .  S
C970        S972   1.805       .  S
S971        H974   1.406       .  S
S972        H973   1.407       .  S
C977        C978   1.409       .  A
C977        C982   1.424       .  A
C978        C979   1.416       .  A
C978        H987   1.082       .  S
C979        C980   1.445       .  A
C979        S983   1.811       .  S
C980        C981   1.414       .  A
C981        C982   1.397       .  A
C981        H988   1.062       .  S
C982        S984   1.815       .  S
S983        H986   1.391       .  S
S984        H985   1.407       .  S
C989        C990   1.413       .  A
C989        C994   1.434       .  A
C990        C991   1.401       .  A
C990        H999   1.082       .  S
C991        C992   1.430       .  A
C991        S995   1.814       .  S
C992        C993   1.416       .  A
C993        C994   1.422       .  A
C993       H1000   1.078       .  S
C994        S996   1.807       .  S
S995        H998   1.407       .  S
S996        H997   1.406       .  S
C1001      C1002   1.421       .  A
C1001      C1006   1.420       .  A
C1002      C1003   1.402       .  A
C1002      H1011   1.072       .  S
C1003      C1004   1.432       .  A
C1003      S1007   1.812       .  S
C1004      C1005   1.415       .  A
C1005      C1006   1.401       .  A
C1005      H1012   1.080       .  S
C1006      S1008   1.816       .  S
S1007      H1010   1.407       .  S
S1008      H1009   1.408       .  S
C1013      C1014   1.415       .  A
C1013      C1018   1.419       .  A
C1014      C1015   1.405       .  A
C1014      H1023   1.075       .  S
C1015      C1016   1.430       .  A
C1015      S1019   1.807       .  S
C1016      C1017   1.409       .  A
C1017      C1018   1.393       .  A
C1017      H1024   1.064       .  S
C1018      S1020   1.799       .  S
S1019      H1022   1.406       .  S
S1020      H1021   1.407       .  S
