geometry optimzed in LAMMPS
_audit_creation_date              2020-11-30 
_audit_creation_method            'lammps2cif' 
_symmetry_space_group_name_H-M    'P1' 
_symmetry_Int_Tables_number       1 
_symmetry_cell_setting            triclinic 
loop_ 
_symmetry_equiv_pos_as_xyz 
  x,y,z 
_cell_length_a                    37.48998726 
_cell_length_b                    40.49692498736481 
_cell_length_c                    38.38618381278128 
_cell_angle_alpha                 86.50311262483294 
_cell_angle_beta                  82.87165905066769 
_cell_angle_gamma                 100.26909825783021 
loop_ 
_atom_site_label 
_atom_site_type_symbol 
_atom_site_fract_x 
_atom_site_fract_y 
_atom_site_fract_z 
_atom_site_charge 
C1          C  0.28789517  0.29088582  0.29234844    -0.00700
C2          C  0.49905195  0.03559239  0.29579615    -0.00700
C3          C  0.04689553  0.29264047  0.48657059    -0.00700
C4          C  0.24382985  0.21234135  0.24859632    -0.00700
C5          C  0.28492899  0.47213280  0.05048719    -0.00700
C6          C  0.49189980  0.21533647  0.05010591    -0.00700
C7          C  0.25730075  0.03869678  0.48746014    -0.00700
C8          C  0.03742909  0.46802214  0.23996364    -0.00700
Zr9        Zr  0.47827597  0.04270693  0.48703205     2.17500
O10         O  0.43819479  0.06794815  0.45229868    -0.49500
O11         O  0.48337011  0.10216735  0.00013939    -0.72700
O12         O  0.41191776  0.02283521  0.01133974    -0.79500
O13         O  0.04746351  0.03489724  0.40771345    -0.81300
O14         O  0.40882211  0.49793205  0.06911145    -0.76900
O15         O  0.49151191  0.04406963  0.42218530    -0.88500
O16         O  0.52399078  0.11296759  0.03909288    -0.74500
O17         O  0.48529855  0.04315390  0.04753091    -0.84000
O18         O  0.04070386  0.06292060  0.48754070    -0.83700
O19         O  0.45878214  0.48508110  0.01473010    -0.70400
O20         O  0.00703379  0.50137284  0.46265139    -0.82600
Zr21       Zr  0.06342241  0.46563983  0.04854975     2.26400
Zr22       Zr  0.46917736  0.48735718  0.07500889     2.06300
Zr23       Zr  0.07149873  0.02151966  0.46130310     2.10000
Zr24       Zr  0.04825593  0.06313565  0.05066845     1.78800
O25         O  0.09869196  0.48936600  0.41847894    -0.91400
O26         O  0.02568171  0.07963386  0.10814158    -0.39200
O27         O  0.07933716  0.02296923  0.02380628    -0.75800
O28         O  0.03061033  0.00741603  0.07790587    -0.94500
O29         O  0.99946158  0.44656812  0.04907089    -0.87800
O30         O  0.05342162  0.46403795  0.48942698    -0.90600
C31         C  0.50119082  0.12172494  0.02010375     1.03100
C32         C  0.01653247  0.04085216  0.40091187     1.16100
C33         C  0.39339303  0.00559478  0.03918269     1.06800
O34         O  0.44091941  0.01178105  0.12291850    -0.92800
O35         O  0.98995811  0.46872742  0.12953295    -0.88500
O36         O  0.04704792  0.45772607  0.11374242    -0.81700
C37         C  0.01983893  0.46065070  0.13684968     1.13500
O38         O  0.44362501  0.43991855  0.44701671    -0.94800
Zr39       Zr  0.98970964  0.44489192  0.48858479     1.88900
O40         O  0.05649938  0.40587656  0.03432549    -0.71400
O41         O  0.42857013  0.43323441  0.09189865    -0.50700
O42         O  0.43595644  0.40502491  0.01181784    -0.95400
O43         O  0.01181654  0.43092177  0.42983405    -0.52600
O44         O  0.01099831  0.39397381  0.00049955    -0.71900
C45         C  0.03589770  0.38575219  0.01703807     1.00800
O46         O  0.10751476  0.94232538  0.07865440    -0.60700
O47         O  0.11152148  0.07449849  0.43775386    -0.55500
O48         O  0.12807726  0.48913102  0.02558579    -0.92200
O49         O  0.13248253  0.01786154  0.47275258    -0.90700
O50         O  0.10399963  0.10259850  0.02639049    -0.91000
O51         O  0.09433192  0.07020736  0.09051352    -0.89800
C52         C  0.14606519  0.00673346  0.49905658     1.19300
H53         H  0.04823726  0.08475695  0.47449341     0.35200
H54         H  0.03601885  0.01168739  0.10128870     0.46100
H55         H  0.06810304  0.44958066  0.47766373     0.39600
H56         H  0.43395537  0.47504959  0.01252734     0.36100
H57         H  0.03711111  0.10365275  0.10810008     0.27800
H58         H  0.41423627  0.43638207  0.11449565     0.33800
H59         H  0.44301724  0.39319163  0.03248707     0.39700
H60         H  0.10148222  0.12391336  0.03694753     0.34200
H61         H  0.12990723  0.06804447  0.41992869     0.33000
H62         H  0.11286886  0.00858879  0.39774804     0.34700
H63         H  0.03049242  0.41700096  0.43325158     0.33700
H64         H  0.10678470  0.05076252  0.08745273     0.37700
H65         H  0.11483413  0.95783651  0.09656244     0.30400
H66         H  0.42378946  0.07990724  0.46896608     0.34600
H67         H  0.43991611  0.41608975  0.44145588     0.37500
H68         H  0.09657624  0.08657110  0.42380973     0.30100
H69         H  0.09394451  0.92142041  0.09245575     0.43000
H70         H  0.44281916  0.03564904  0.11426475     0.33000
H71         H  0.50556498  0.08070919  0.10755378     0.40700
H72         H  0.02596150  0.45245145  0.41778913     0.32500
H73         H  0.41067791  0.43153135  0.07485037     0.32600
H74         H  0.41791187  0.54914606  0.44729276     0.32800
Zr75       Zr  0.30579599  0.05419080  0.29370478     2.17500
O76         O  0.35118689  0.10445373  0.29829415    -0.49500
O77         O  0.29386123  0.05552103  0.35747898    -0.72700
O78         O  0.28317504  0.10715354  0.28377753    -0.79500
O79         O  0.37805462  0.99676750  0.28580088    -0.81300
O80         O  0.22682751  0.09563811  0.26600696    -0.76900
O81         O  0.37029983  0.05012464  0.29552104    -0.88500
O82         O  0.25207224  0.00884524  0.37981577    -0.74500
O83         O  0.24179611  0.03368027  0.31027130    -0.84000
O84         O  0.29849008  0.99706016  0.31716034    -0.83700
O85         O  0.27933856  0.05888472  0.23995984    -0.70400
O86         O  0.33168194  0.02462679  0.24742294    -0.82600
Zr87       Zr  0.23037421  0.45076637  0.24331522     2.26400
Zr88       Zr  0.21525239  0.03717199  0.25689025     2.06300
Zr89       Zr  0.32037772  0.46630350  0.28161352     2.10000
Zr90       Zr  0.23246317  0.47643959  0.34210471     1.78800
O91         O  0.37003061  0.45259581  0.24128030    -0.91400
O92         O  0.17699465  0.98591671  0.36311896    -0.39200
O93         O  0.25642463  0.44562748  0.29686931    -0.75800
O94         O  0.20466189  0.48038007  0.28988760    -0.94500
O95         O  0.24000376  0.50783549  0.21927390    -0.87800
O96         O  0.29481472  0.46995437  0.22795032    -0.90600
C97         C  0.27364452  0.03631000  0.38287988     1.03100
C98         C  0.38961002  0.02684352  0.29276964     1.16100
C99         C  0.25428689  0.11576137  0.27383994     1.06800
O100        O  0.16404539  0.04940451  0.29632277    -0.92800
O101        O  0.15845640  0.00821152  0.24196315    -0.88500
O102        O  0.16648929  0.45577149  0.23889749    -0.81700
C103        C  0.14757594  0.47934690  0.24132894     1.13500
O104        O  0.35512454  0.07520438  0.18147671    -0.94800
Zr105      Zr  0.30365613  0.02805519  0.19517653     1.88900
O106        O  0.24264699  0.45021105  0.17944190    -0.71400
O107        O  0.20130764  0.06658622  0.20442431    -0.50700
O108        O  0.28544740  0.07174789  0.15850302    -0.95400
O109        O  0.35686980  0.01451621  0.15947114    -0.52600
O110        O  0.28671416  0.49560979  0.15811525    -0.71900
C111        C  0.26394699  0.46913579  0.15449473     1.00400
O112        O  0.19231061  0.39667925  0.23645979    -0.60700
O113        O  0.33337907  0.43376685  0.33259864    -0.55500
O114        O  0.24884105  0.39706708  0.25910790    -0.92200
O115        O  0.30631932  0.40767815  0.27432304    -0.90700
O116        O  0.25165709  0.43444092  0.38014865    -0.91000
O117        O  0.18425103  0.42700806  0.35796431    -0.89800
C118        C  0.27770294  0.38790426  0.26843831     1.19300
H119        H  0.31152655  0.99534936  0.33715904     0.35200
H120        H  0.17891228  0.47176466  0.29719249     0.46100
H121        H  0.30506849  0.45607569  0.21125687     0.39600
H122        H  0.28393634  0.08164014  0.22911542     0.36100
H123        H  0.17719940  0.48155022  0.39872446     0.27800
H124        H  0.18268206  0.07968778  0.21333327     0.33800
H125        H  0.29467544  0.06808352  0.13400302     0.39700
H126        H  0.23902927  0.43631321  0.40398279     0.34200
H127        H  0.35311133  0.42210617  0.32317198     0.33000
H128        H  0.38399182  0.44059001  0.25643591     0.34700
H129        H  0.35429863  0.02148385  0.13485629     0.33700
H130        H  0.18792391  0.41214931  0.33879043     0.37700
H131        H  0.17173224  0.39358990  0.25595212     0.30400
H132        H  0.33983425  0.11691983  0.31671643     0.34600
H133        H  0.35758601  0.08103545  0.15575155     0.37500
H134        H  0.34532526  0.45047200  0.34733444     0.30100
H135        H  0.18119075  0.40003860  0.21475120     0.43000
H136        H  0.17490360  0.05836283  0.31685211     0.33000
H137        H  0.17992746  0.01070603  0.36292957     0.40700
H138        H  0.36075955  0.49187424  0.18039661     0.32500
H139        H  0.22351391  0.08376748  0.19616395     0.32600
H140        H  0.35311147  0.11868972  0.27599013     0.32800
Zr141      Zr  0.29408007  0.21327929  0.05901587     2.17500
O142        O  0.29629869  0.16839573  0.10375779    -0.49500
O143        O  0.36014601  0.21624345  0.05684564    -0.72700
O144        O  0.28578688  0.15744401  0.03705408    -0.79500
O145        O  0.26784321  0.26970623  0.13174787    -0.81300
O146        O  0.27495333  0.15242554  0.48238238    -0.76900
O147        O  0.28092532  0.21795817  0.12219981    -0.88500
O148        O  0.39074501  0.26055789  0.01931269    -0.74500
O149        O  0.32077345  0.22991747  0.99947718    -0.84000
O150        O  0.31973632  0.27168007  0.05748794    -0.83700
O151        O  0.24377834  0.20233020  0.02508108    -0.70400
O152        O  0.24404554  0.24082004  0.07738778    -0.82600
Zr153      Zr  0.24446914  0.29585215  0.48089624     2.26400
Zr154      Zr  0.26845162  0.20987706  0.46749558     2.06300
Zr155      Zr  0.26955135  0.29943685  0.07414285     2.10000
Zr156      Zr  0.34533668  0.28858764  0.99783098     1.78800
O157        O  0.21996900  0.31557541  0.11261074    -0.91400
O158        O  0.38344939  0.26723224  0.44823548    -0.39200
O159        O  0.29568011  0.31640911  0.01430832    -0.75800
O160        O  0.29517591  0.26864892  0.46292834    -0.94500
O161        O  0.21831992  0.23753363  0.48432531    -0.87800
O162        O  0.22054655  0.29003732  0.03907226    -0.90600
C163        C  0.38958504  0.23493036  0.04077137     1.03100
C164        C  0.27233768  0.24023020  0.14243429     1.16100
C165        C  0.27939984  0.13564307  0.51040671     1.06800
O166        O  0.31601968  0.19562872  0.42503346    -0.92800
O167        O  0.26388319  0.23543707  0.40953293    -0.88500
O168        O  0.25250141  0.28793234  0.41790441    -0.81700
C169        C  0.25908832  0.26460035  0.39824987     1.13500
O170        O  0.17010156  0.18380093  0.08556446    -0.94800
Zr171      Zr  0.19545546  0.23145179  0.04230089     1.88900
O172        O  0.17848612  0.29282833  0.48270151    -0.71400
O173        O  0.21831338  0.17401915  0.44535482    -0.50700
O174        O  0.15594625  0.17786083  0.51735524    -0.95400
O175        O  0.15626135  0.24649284  0.09216166    -0.52600
O176        O  0.14782678  0.24790793  0.51944036    -0.71900
C177        C  0.14902667  0.27351602  0.49786888     1.00400
O178        O  0.24171519  0.34595111  0.44326120    -0.60700
O179        O  0.31610963  0.33393134  0.10227792    -0.55500
O180        O  0.26042312  0.36212553  0.99882483    -0.92200
O181        O  0.27105300  0.35816836  0.05597615    -0.90700
O182        O  0.37997860  0.33163316  0.02848884    -0.91000
O183        O  0.36653081  0.32803246  0.45629081    -0.89800
C184        C  0.26783929  0.37496391  0.02745440     1.19300
H185        H  0.33792721  0.27553482  0.07323733     0.35200
H186        H  0.30727893  0.27649622  0.43946571     0.46100
H187        H  0.20222206  0.30316776  0.04619138     0.39600
H188        H  0.23160104  0.17906770  0.02787119     0.36100
H189        H  0.40830800  0.27820999  0.45199931     0.27800
H190        H  0.23041536  0.16061438  0.42840542     0.33800
H191        H  0.13029459  0.18003528  0.52492243     0.39700
H192        H  0.40589226  0.32982267  0.02183238     0.34200
H193        H  0.30223759  0.34257073  0.12226595     0.33000
H194        H  0.23220047  0.32874920  0.13012817     0.34700
H195        H  0.15010545  0.26830296  0.08439340     0.33700
H196        H  0.34474329  0.33771796  0.45239001     0.37700
H197        H  0.26458921  0.35049468  0.42634242     0.30400
H198        H  0.31579289  0.15663832  0.09397943     0.34600
H199        H  0.14318179  0.18070878  0.08645282     0.37500
H200        H  0.32918192  0.31789766  0.11351892     0.30100
H201        H  0.22190704  0.33907932  0.42888224     0.43000
H202        H  0.33147123  0.21756339  0.41563817     0.33000
H203        H  0.38342533  0.24280746  0.45187146     0.40700
H204        H  0.17267820  0.25202000  0.11013595     0.32500
H205        H  0.20676728  0.15755969  0.46546951     0.32600
H206        H  0.27319141  0.15188694  0.10460547     0.32800
Zr207      Zr  0.05273544  0.21479665  0.22656963     2.17500
O208        O  0.09358390  0.20810168  0.17385347    -0.49500
O209        O  0.04128823  0.15351655  0.23959673    -0.72700
O210        O  0.11549023  0.21277705  0.23805174    -0.79500
O211        O  0.47601149  0.22657000  0.17073375    -0.81300
O212        O  0.12492831  0.23542949  0.28973181    -0.76900
O213        O  0.03155147  0.20991617  0.16867568    -0.88500
O214        O  0.00265598  0.14139815  0.29114438    -0.74500
O215        O  0.04445901  0.20495311  0.28917128    -0.84000
O216        O  0.48752344  0.19815632  0.24553510    -0.83700
O217        O  0.08017861  0.26698443  0.24761470    -0.70400
O218        O  0.02711223  0.26230495  0.20819012    -0.82600
Zr219      Zr  0.48017483  0.28878829  0.31183846     2.26400
Zr220      Zr  0.07053559  0.25685031  0.31057209     2.06300
Zr221      Zr  0.46118796  0.24539720  0.22846609     2.10000
Zr222      Zr  0.48046380  0.18968011  0.30794416     1.78800
O223        O  0.44565569  0.28283537  0.18299656    -0.91400
O224        O  0.99338342  0.16591543  0.36247357    -0.39200
O225        O  0.45293761  0.23630483  0.29135415    -0.75800
O226        O  0.00611888  0.24217838  0.33055699    -0.94500
O227        O  0.04573878  0.30485772  0.29312348    -0.87800
O228        O  0.48699445  0.29765286  0.24915431    -0.90600
C229        C  0.02325390  0.13310178  0.26531542     1.03100
C230        C  0.50191147  0.21380144  0.15513663     1.16100
C231        C  0.13526673  0.22119316  0.26236158     1.06800
O232        O  0.08253993  0.21942190  0.35807066    -0.92800
O233        O  0.05969704  0.27981562  0.36661340    -0.88500
O234        O  0.00572993  0.29864170  0.36880475    -0.81700
C235        C  0.03408872  0.29280348  0.38233272     1.13500
O236        O  0.10034083  0.32051457  0.17948926    -0.94800
Zr237      Zr  0.05315863  0.31357153  0.23057390     1.88900
O238        O  0.99229374  0.35172964  0.29822473    -0.71400
O239        O  0.12241122  0.30167790  0.31422375    -0.50700
O240        O  0.10858392  0.34869377  0.24444825    -0.95400
O241        O  0.03678694  0.34145402  0.17834733    -0.52600
O242        O  0.03454866  0.36425864  0.24913797    -0.71900
C243        C  0.01263757  0.37241344  0.27392783     1.00400
O244        O  0.43953208  0.29180197  0.36588023    -0.60700
O245        O  0.40983601  0.19995270  0.22490142    -0.55500
O246        O  0.41693883  0.28974590  0.30161693    -0.92200
O247        O  0.40596746  0.26489091  0.25139890    -0.90700
O248        O  0.42547567  0.15339847  0.29490551    -0.91000
O249        O  0.43229366  0.17966647  0.35822111    -0.89800
C250        C  0.39625554  0.27997040  0.27842053     1.19300
H251        H  0.47700743  0.17817409  0.23525514     0.35200
H252        H  0.00158477  0.23774646  0.35587709     0.46100
H253        H  0.47433481  0.31510483  0.24172172     0.39600
H254        H  0.10593626  0.27294391  0.23881911     0.36100
H255        H  0.98056370  0.14217671  0.36394315     0.27800
H256        H  0.13675155  0.29196190  0.33084946     0.33800
H257        H  0.10739037  0.37183783  0.23536083     0.39700
H258        H  0.42768151  0.13041539  0.30358967     0.34200
H259        H  0.39421822  0.21001764  0.20990301     0.33000
H260        H  0.42246518  0.27061794  0.17642959     0.34700
H261        H  0.04778614  0.36554871  0.17859536     0.33700
H262        H  0.42658078  0.20221107  0.36215215     0.37700
H263        H  0.42804053  0.31161072  0.36162866     0.30400
H264        H  0.10434919  0.18816255  0.17959746     0.34600
H265        H  0.10942542  0.34509216  0.17482892     0.37500
H266        H  0.42014446  0.18373522  0.21022145     0.30100
H267        H  0.41945389  0.27202277  0.36724419     0.43000
H268        H  0.08412350  0.19793422  0.34751877     0.33000
H269        H  0.01966728  0.16467877  0.35797156     0.40700
H270        H  0.01010386  0.34066047  0.18350955     0.32500
H271        H  0.13779695  0.30371813  0.29101591     0.32600
H272        H  0.11415652  0.22755511  0.17165350     0.32800
C273        C  0.07699644  0.46979336  0.23827827    -0.11500
C274        C  0.10951839  0.47195687  0.23783945    -0.13000
C275        C  0.01958021  0.43714700  0.26230452    -0.11500
C276        C  0.01175139  0.40774251  0.27304740    -0.13000
C277        C  0.02878689  0.46327327  0.20391970    -0.11500
C278        C  0.02451036  0.45933787  0.17357722    -0.13000
C279        C  0.26736850  0.07080803  0.50282385    -0.11500
C280        C  0.27486760  0.09984155  0.50917954    -0.13000
C281        C  0.26882666  0.04479242  0.44953387    -0.11500
C282        C  0.27454311  0.04518117  0.41804908    -0.13000
C283        C  0.18495436  0.01604787  0.49737832    -0.11500
C284        C  0.21742558  0.02688562  0.49335059    -0.13000
C285        C  0.49695066  0.20948514  0.08743025    -0.11500
C286        C  0.50038204  0.20884778  0.11842068    -0.13000
C287        C  0.42415951  0.22675855  0.04680063    -0.11500
C288        C  0.45449567  0.22154246  0.04929786    -0.13000
C289        C  0.49506938  0.18422172  0.03221437    -0.11500
C290        C  0.49591024  0.15615187  0.02283364    -0.13000
C291        C  0.26558213  0.49764310  0.03475367    -0.14600
C292        C  0.27204257  0.02142696  0.02082329    -0.29800
H293        H  0.24424124  0.50670048  0.05132806     0.14400
H294        H  0.29682982  0.00293166  0.48516517     0.15000
C295        C  0.27053844  0.46403756  0.08764645    -0.11500
C296        C  0.26313466  0.46139453  0.11907950    -0.13000
C297        C  0.27956393  0.44016416  0.03395745    -0.11500
C298        C  0.27388317  0.41094702  0.02783627    -0.13000
C299        C  0.32395665  0.48721229  0.04796438    -0.11500
C300        C  0.35572246  0.50037683  0.04589263    -0.13000
C301        C  0.25310643  0.15050003  0.26749190    -0.11500
C302        C  0.24884723  0.17817592  0.25801375    -0.13000
C303        C  0.20440361  0.21344606  0.25478980    -0.11500
C304        C  0.17239446  0.21560744  0.25823828    -0.13000
C305        C  0.25730509  0.22205015  0.21090719    -0.11500
C306        C  0.26564083  0.23075406  0.17979923    -0.13000
C307        C  0.02104745  0.24742151  0.03306725    -0.14600
C308        C  0.02067483  0.26200041  0.00057789    -0.29800
H309        H  0.04120854  0.25947232  0.04867164     0.14400
H310        H  0.99854198  0.25001139  0.48725282     0.15000
C311        C  0.11449551  0.28118140  0.49083522    -0.11500
C312        C  0.08429088  0.28639196  0.48759640    -0.13000
C313        C  0.03701385  0.29896306  0.41859754    -0.11500
C314        C  0.04162287  0.29858044  0.44930702    -0.13000
C315        C  0.04111929  0.35156894  0.01373921    -0.11500
C316        C  0.04352835  0.32361894  0.50454909    -0.13000
C317        C  0.02812014  0.50113998  0.25265969    -0.14600
C318        C  0.00699345  0.00376837  0.28399915    -0.29800
H319        H  0.04013886  0.52388351  0.23571858     0.14400
H320        H  0.49505159  0.97985961  0.29904420     0.15000
C321        C  0.02509601  0.09788783  0.26622377    -0.11500
C322        C  0.51781786  0.06683423  0.27472007    -0.13000
C323        C  0.42755168  0.03426698  0.29658457    -0.11500
C324        C  0.45977887  0.03521003  0.29700742    -0.13000
C325        C  0.51242063  0.04113106  0.36241564    -0.11500
C326        C  0.50747693  0.03843564  0.33209289    -0.13000
C327        C  0.26682716  0.26839969  0.26907052    -0.14600
C328        C  0.26510466  0.23508172  0.27152501    -0.29800
H329        H  0.25224010  0.27929017  0.24980246     0.14400
H330        H  0.27981512  0.22429257  0.29076732     0.15000
C331        C  0.27839623  0.35303366  0.27485612    -0.11500
C332        C  0.28315597  0.32524056  0.28325544    -0.13000
C333        C  0.35907394  0.28579101  0.28319120    -0.11500
C334        C  0.32730626  0.28903319  0.28683489    -0.13000
C335        C  0.27342940  0.28116792  0.32974284    -0.11500
C336        C  0.26451819  0.27288685  0.36081298    -0.13000
C337        C  0.28889104  0.29316086  0.78894305    -0.00700
C338        C  0.49946486  0.03513079  0.79593504    -0.00700
C339        C  0.04720573  0.29404596  0.98448258    -0.00700
C340        C  0.24415825  0.21070329  0.75160413    -0.00700
C341        C  0.28367494  0.46620734  0.54086103    -0.00700
C342        C  0.49297022  0.21474825  0.55062654    -0.00700
C343        C  0.25569035  0.04410516  0.99751458    -0.00700
C344        C  0.03535754  0.46623880  0.74011246    -0.00700
Zr345      Zr  0.47702521  0.04195737  0.98695679     2.17500
O346        O  0.43705018  0.06712511  0.95205128    -0.49500
O347        O  0.48584202  0.10295566  0.49951618    -0.72700
O348        O  0.41342866  0.02579223  0.51305218    -0.79500
O349        O  0.04674473  0.03415020  0.90922723    -0.81300
O350        O  0.40586621  0.49448783  0.56678464    -0.76900
O351        O  0.49160123  0.04381154  0.92199025    -0.88500
O352        O  0.52820413  0.11392381  0.53677978    -0.74500
O353        O  0.48798008  0.04460941  0.54713986    -0.84000
O354        O  0.03963337  0.06278510  0.99020258    -0.83700
O355        O  0.45776041  0.48465238  0.51445843    -0.70400
O356        O  0.00802216  0.50115782  0.96118355    -0.82600
Zr357      Zr  0.06086872  0.46530753  0.55041470     2.26400
Zr358      Zr  0.46698488  0.48713759  0.57509572     2.06300
Zr359      Zr  0.07165543  0.02257465  0.96319798     2.10000
Zr360      Zr  0.05114490  0.06444588  0.54738727     1.78800
O361        O  0.09652689  0.48784318  0.91385710    -0.91400
O362        O  0.03343331  0.08267847  0.60535366    -0.39200
O363        O  0.08101214  0.02311489  0.52134120    -0.75800
O364        O  0.03284317  0.00921190  0.57625266    -0.94500
O365        O  0.99734255  0.44511871  0.54941750    -0.87800
O366        O  0.05424993  0.46339271  0.98807413    -0.90600
C367        C  0.50468581  0.12259621  0.51863005     1.03100
C368        C  0.01599358  0.04037974  0.90200578     1.16100
C369        C  0.39540783  0.00985242  0.54178627     1.06800
O370        O  0.44851144  0.01672943  0.62333003    -0.92800
O371        O  0.98560414  0.46629969  0.63042434    -0.88500
O372        O  0.04283350  0.45546581  0.61519094    -0.81700
C373        C  0.01533184  0.45811614  0.63802194     1.13500
O374        O  0.44419504  0.43861544  0.94752536    -0.94800
Zr375      Zr  0.99021515  0.44527653  0.98865555     1.88900
O376        O  0.05631721  0.40593436  0.53518126    -0.71400
O377        O  0.42714174  0.43340312  0.59567941    -0.50700
O378        O  0.43576645  0.40441276  0.51165604    -0.95400
O379        O  0.01170928  0.43045794  0.93009725    -0.52600
O380        O  0.01225281  0.39407605  0.49980266    -0.71900
C381        C  0.03671962  0.38584573  0.51702369     1.00800
O382        O  0.10949708  0.94443107  0.57685105    -0.60700
O383        O  0.10928411  0.07672729  0.93963101    -0.55500
O384        O  0.12546804  0.49146637  0.53069171    -0.92200
O385        O  0.13243298  0.02098435  0.97722825    -0.90700
O386        O  0.10637295  0.10269174  0.51940746    -0.91000
O387        O  0.10033690  0.07335625  0.58364230    -0.89800
C388        C  0.14543127  0.00985879  0.00397024     1.19300
H389        H  0.04727734  0.08487019  0.97781789     0.35200
H390        H  0.03886539  0.01354818  0.59943624     0.46100
H391        H  0.06833900  0.44847255  0.97632789     0.39600
H392        H  0.43335984  0.47382567  0.51164661     0.36100
H393        H  0.04331692  0.10718869  0.60343461     0.27800
H394        H  0.41067832  0.43849420  0.61605111     0.33800
H395        H  0.43830814  0.38370783  0.49989174     0.39700
H396        H  0.09794409  0.11823925  0.50269338     0.34200
H397        H  0.12916390  0.07096015  0.92298379     0.33000
H398        H  0.10951317  0.01107692  0.89711575     0.34700
H399        H  0.03211371  0.41854398  0.93322692     0.33700
H400        H  0.11417672  0.05513283  0.57857703     0.37700
H401        H  0.11631337  0.95991347  0.59494935     0.30400
H402        H  0.42148524  0.07784691  0.96895385     0.34600
H403        H  0.44126472  0.41479664  0.94195932     0.37500
H404        H  0.09421922  0.08725438  0.92439562     0.30100
H405        H  0.09667265  0.92314161  0.59039201     0.43000
H406        H  0.44239983  0.03760287  0.61282149     0.33000
H407        H  0.50869051  0.07859457  0.60736943     0.40700
H408        H  0.02358744  0.45217624  0.91684627     0.32500
H409        H  0.41119182  0.42870705  0.57715981     0.32600
H410        H  0.41989457  0.54975465  0.94805264     0.32800
Zr411      Zr  0.30467275  0.05312819  0.80445327     2.17500
O412        O  0.34815963  0.10329600  0.81360549    -0.49500
O413        O  0.29385040  0.05252415  0.86859424    -0.72700
O414        O  0.28273316  0.10629880  0.79249279    -0.79500
O415        O  0.37705858  0.99605032  0.79597659    -0.81300
O416        O  0.22684480  0.09487742  0.77381549    -0.76900
O417        O  0.37007424  0.05028890  0.80158775    -0.88500
O418        O  0.25167183  0.00601285  0.89062031    -0.74500
O419        O  0.24027500  0.03344319  0.81925485    -0.84000
O420        O  0.29583064  0.99606954  0.82878670    -0.83700
O421        O  0.28012015  0.05741586  0.74966109    -0.70400
O422        O  0.33108351  0.02249465  0.75962712    -0.82600
Zr423      Zr  0.23068203  0.45100746  0.73293317     2.26400
Zr424      Zr  0.21572402  0.03646473  0.76472894     2.06300
Zr425      Zr  0.32293538  0.46794126  0.76736087     2.10000
Zr426      Zr  0.23654971  0.47586762  0.83169250     1.78800
O427        O  0.37120734  0.45984510  0.72190612    -0.91400
O428        O  0.17671767  0.99077295  0.87368631    -0.39200
O429        O  0.25940909  0.44615107  0.78495294    -0.75800
O430        O  0.20620112  0.47956295  0.78103948    -0.94500
O431        O  0.23829938  0.50821795  0.71002426    -0.87800
O432        O  0.29468427  0.47117778  0.71526435    -0.90600
C433        C  0.27400883  0.03292797  0.89395734     1.03100
C434        C  0.38928769  0.02687117  0.79973944     1.16100
C435        C  0.25418399  0.11499955  0.78181494     1.06800
O436        O  0.16362107  0.04898262  0.80271574    -0.92800
O437        O  0.15993493  0.00841549  0.74691869    -0.88500
O438        O  0.16572474  0.45504805  0.73234163    -0.81700
C439        C  0.14623561  0.47813710  0.73599803     1.13500
O440        O  0.35273102  0.07613106  0.68996913    -0.94800
Zr441      Zr  0.30551764  0.02582999  0.70614863     1.88900
O442        O  0.24125857  0.45139910  0.66878308    -0.71400
O443        O  0.20545717  0.06733994  0.71153309    -0.50700
O444        O  0.28664240  0.06606310  0.66565251    -0.95400
O445        O  0.36312156  0.01331229  0.67802790    -0.52600
O446        O  0.27801116  0.50099293  0.64649131    -0.71900
C447        C  0.25801929  0.47273523  0.64333335     1.00400
O448        O  0.19317762  0.39737370  0.72363204    -0.60700
O449        O  0.34256476  0.43354455  0.81307852    -0.55500
O450        O  0.25056940  0.39788771  0.74913944    -0.92200
O451        O  0.30912762  0.40899944  0.76163257    -0.90700
O452        O  0.26155981  0.43705380  0.86854668    -0.91000
O453        O  0.19279410  0.42386477  0.85028148    -0.89800
C454        C  0.27996791  0.38896847  0.75751707     1.19300
H455        H  0.30835578  0.99417208  0.84908043     0.35200
H456        H  0.18078151  0.47043666  0.78941554     0.46100
H457        H  0.30436267  0.45761216  0.69796075     0.39600
H458        H  0.28518398  0.08002436  0.73849172     0.36100
H459        H  0.18132381  0.47669818  0.88987410     0.27800
H460        H  0.18627900  0.08019206  0.71957717     0.33800
H461        H  0.29701578  0.06144631  0.64183409     0.39700
H462        H  0.25120907  0.43982193  0.89297698     0.34200
H463        H  0.36718626  0.43019056  0.80309114     0.33000
H464        H  0.38400611  0.44370544  0.73337711     0.34700
H465        H  0.36158197  0.01518162  0.65243752     0.33700
H466        H  0.18872485  0.41339040  0.82810887     0.37700
H467        H  0.17426718  0.39209895  0.74464732     0.30400
H468        H  0.33496880  0.11522520  0.83131956     0.34600
H469        H  0.35889266  0.07738000  0.66401669     0.37500
H470        H  0.34701223  0.44830730  0.83232331     0.30100
H471        H  0.17969602  0.40214028  0.70388556     0.43000
H472        H  0.17373301  0.05744171  0.82380753     0.33000
H473        H  0.18193134  0.01566066  0.87304086     0.40700
H474        H  0.34999949  0.49056994  0.65634516     0.32500
H475        H  0.22789042  0.08466844  0.70488383     0.32600
H476        H  0.35194120  0.11806507  0.79144110     0.32800
Zr477      Zr  0.29242237  0.20440999  0.56117456     2.17500
O478        O  0.29442963  0.15971169  0.60618670    -0.49500
O479        O  0.35904712  0.20881665  0.55872680    -0.72700
O480        O  0.28520522  0.14818364  0.53957288    -0.79500
O481        O  0.26700016  0.26192823  0.63330873    -0.81300
O482        O  0.27563029  0.16176570  0.97984552    -0.76900
O483        O  0.27973485  0.20994000  0.62447433    -0.88500
O484        O  0.38890256  0.25419202  0.52218577    -0.74500
O485        O  0.31838446  0.22059518  0.50133607    -0.84000
O486        O  0.31794117  0.26294709  0.55860463    -0.83700
O487        O  0.24178867  0.19293489  0.52756114    -0.70400
O488        O  0.24221705  0.23199185  0.57921510    -0.82600
Zr489      Zr  0.24686491  0.30559893  0.97901675     2.26400
Zr490      Zr  0.27102586  0.21984140  0.96527366     2.06300
Zr491      Zr  0.26784664  0.29063118  0.57550903     2.10000
Zr492      Zr  0.34291078  0.27938080  0.49861391     1.78800
O493        O  0.21956427  0.30722864  0.61525966    -0.91400
O494        O  0.38514240  0.27991220  0.94534398    -0.39200
O495        O  0.29354821  0.30726702  0.51559271    -0.75800
O496        O  0.29789415  0.27864462  0.96136335    -0.94500
O497        O  0.22072686  0.24728623  0.98219339    -0.87800
O498        O  0.21840626  0.28074964  0.54100344    -0.90600
C499        C  0.38825826  0.22851023  0.54330810     1.03100
C500        C  0.27158482  0.23263637  0.64441367     1.16100
C501        C  0.27944305  0.14490044  0.00805987     1.06800
O502        O  0.31862009  0.20602777  0.92250471    -0.92800
O503        O  0.26589796  0.24529108  0.90763695    -0.88500
O504        O  0.25484734  0.29794470  0.91560055    -0.81700
C505        C  0.26110034  0.27432403  0.89609287     1.13500
O506        O  0.16984782  0.17309361  0.58654678    -0.94800
Zr507      Zr  0.19319079  0.22212296  0.54447891     1.88900
O508        O  0.18062118  0.30149719  0.98016592    -0.71400
O509        O  0.22196809  0.18494288  0.94073614    -0.50700
O510        O  0.15923239  0.18537660  0.01673308    -0.95400
O511        O  0.15467014  0.23531394  0.59589759    -0.52600
O512        O  0.15036865  0.25576479  0.01597524    -0.71900
C513        C  0.15135143  0.28134545  0.99458360     1.00400
O514        O  0.24507180  0.35637482  0.94201471    -0.60700
O515        O  0.31595404  0.32520791  0.60171727    -0.55500
O516        O  0.25957429  0.35254350  0.49960477    -0.92200
O517        O  0.26915378  0.34924804  0.55706335    -0.90700
O518        O  0.37795669  0.32536803  0.52520136    -0.91000
O519        O  0.37192015  0.33954651  0.95973155    -0.89800
C520        C  0.26669570  0.36572702  0.52811576     1.19300
H521        H  0.33630019  0.26721295  0.57415913     0.35200
H522        H  0.30989967  0.28664371  0.93792868     0.46100
H523        H  0.20015569  0.29403577  0.54810236     0.39600
H524        H  0.23008950  0.16955786  0.53053405     0.36100
H525        H  0.41027973  0.28505071  0.95159898     0.27800
H526        H  0.23461884  0.17183025  0.92386944     0.33800
H527        H  0.13357760  0.18852176  0.02202555     0.39700
H528        H  0.40372582  0.32257527  0.51990437     0.34200
H529        H  0.30279362  0.33704378  0.61950500     0.33000
H530        H  0.23257713  0.32093870  0.63193592     0.34700
H531        H  0.12925670  0.22876541  0.59074490     0.33700
H532        H  0.35118924  0.35131586  0.95764634     0.37700
H533        H  0.26773868  0.36049611  0.92482869     0.30400
H534        H  0.31416532  0.14808683  0.59671084     0.34600
H535        H  0.14293609  0.16855369  0.58705764     0.37500
H536        H  0.32678246  0.30921023  0.61574479     0.30100
H537        H  0.22492939  0.35006726  0.92787598     0.43000
H538        H  0.33731625  0.20012990  0.93662323     0.33000
H539        H  0.38033078  0.25525928  0.94376520     0.40700
H540        H  0.15889395  0.26019703  0.59500811     0.32500
H541        H  0.20961242  0.16815524  0.96028311     0.32600
H542        H  0.27145637  0.14306845  0.60684532     0.32800
Zr543      Zr  0.05283024  0.21354775  0.72756299     2.17500
O544        O  0.09369454  0.20682152  0.67488626    -0.49500
O545        O  0.04222459  0.15252459  0.74117911    -0.72700
O546        O  0.11590351  0.21224276  0.73899545    -0.79500
O547        O  0.47645003  0.22425408  0.67142115    -0.81300
O548        O  0.12560623  0.23659413  0.78971764    -0.76900
O549        O  0.03095107  0.20771829  0.67005077    -0.88500
O550        O  0.00401370  0.14062421  0.79301244    -0.74500
O551        O  0.04558200  0.20522371  0.79026470    -0.84000
O552        O  0.48814544  0.19658587  0.74652758    -0.83700
O553        O  0.07954958  0.26679608  0.74668961    -0.70400
O554        O  0.02556140  0.25978524  0.70867439    -0.82600
Zr555      Zr  0.48019436  0.28808923  0.81202794     2.26400
Zr556      Zr  0.07108221  0.25830034  0.80970795     2.06300
Zr557      Zr  0.46089823  0.24305737  0.72923043     2.10000
Zr558      Zr  0.48112277  0.18883422  0.80896443     1.78800
O559        O  0.44184536  0.27598684  0.68207941    -0.91400
O560        O  0.99652438  0.16665019  0.86453142    -0.39200
O561        O  0.45311794  0.23512132  0.79218763    -0.75800
O562        O  0.00690900  0.24233117  0.83094081    -0.94500
O563        O  0.04448109  0.30495074  0.79177592    -0.87800
O564        O  0.48657544  0.29575206  0.74924680    -0.90600
C565        C  0.02440001  0.13226003  0.76706673     1.03100
C566        C  0.50321235  0.21272831  0.65557840     1.16100
C567        C  0.13585894  0.22147303  0.76296884     1.06800
O568        O  0.08873118  0.22555673  0.85784856    -0.92800
O569        O  0.05945279  0.28184621  0.86533082    -0.88500
O570        O  0.00491802  0.29967770  0.86775134    -0.81700
C571        C  0.03359888  0.29457404  0.88100030     1.13500
O572        O  0.09726549  0.32157180  0.67736710    -0.94800
Zr573      Zr  0.05083606  0.31221634  0.72924275     1.88900
O574        O  0.99144588  0.35044067  0.79909666    -0.71400
O575        O  0.12154413  0.30558083  0.80900336    -0.50700
O576        O  0.10733843  0.34774169  0.74006900    -0.95400
O577        O  0.03103463  0.33745376  0.67735484    -0.52600
O578        O  0.03240515  0.36271285  0.74906925    -0.71900
C579        C  0.01128019  0.37099242  0.77447542     1.00400
O580        O  0.43926878  0.29139710  0.86580300    -0.60700
O581        O  0.41125764  0.19493157  0.73006880    -0.55500
O582        O  0.41749253  0.29059121  0.80067940    -0.92200
O583        O  0.40635209  0.26420244  0.75132376    -0.90700
O584        O  0.42612344  0.15225408  0.79634173    -0.91000
O585        O  0.43276792  0.17910281  0.85911594    -0.89800
C586        C  0.39684338  0.28040186  0.77755299     1.19300
H587        H  0.47790778  0.17640688  0.73640425     0.35200
H588        H  0.00287419  0.23840073  0.85630516     0.46100
H589        H  0.47375141  0.31302758  0.74174778     0.39600
H590        H  0.10521078  0.27291309  0.73747429     0.36100
H591        H  0.98552550  0.14240939  0.86594902     0.27800
H592        H  0.13584631  0.29854126  0.82722012     0.33800
H593        H  0.10472105  0.37104688  0.73308524     0.39700
H594        H  0.42836559  0.12936239  0.80529780     0.34200
H595        H  0.39124409  0.20443071  0.72111132     0.33000
H596        H  0.41796304  0.26291015  0.67808088     0.34700
H597        H  0.01064540  0.34843965  0.68655506     0.33700
H598        H  0.43003514  0.20193673  0.86549573     0.37700
H599        H  0.42802788  0.31134700  0.86141486     0.30400
H600        H  0.10434937  0.18680755  0.68065806     0.34600
H601        H  0.10306240  0.34626216  0.67141996     0.37500
H602        H  0.41972447  0.18146733  0.71111661     0.30100
H603        H  0.41905347  0.27177533  0.86698771     0.43000
H604        H  0.08620827  0.20235183  0.85045660     0.33000
H605        H  0.02322308  0.16728239  0.86007827     0.40700
H606        H  0.01921115  0.31808978  0.66569314     0.32500
H607        H  0.13740997  0.30541537  0.78641813     0.32600
H608        H  0.11432586  0.22619773  0.67274068     0.32800
C609        C  0.07501760  0.46772014  0.73676478    -0.11500
C610        C  0.10773347  0.47003311  0.73460463    -0.13000
C611        C  0.01807313  0.43569488  0.76317802    -0.11500
C612        C  0.01055914  0.40630851  0.77393908    -0.13000
C613        C  0.02497313  0.46102777  0.70477768    -0.11500
C614        C  0.01979914  0.45676501  0.67473972    -0.13000
C615        C  0.26470189  0.07920225  0.00570608    -0.11500
C616        C  0.27300453  0.10904075  0.00794128    -0.13000
C617        C  0.26977411  0.04326299  0.96041981    -0.11500
C618        C  0.27580185  0.04118917  0.92926128    -0.13000
C619        C  0.18379874  0.02076741  0.00426252    -0.11500
C620        C  0.21592775  0.03245360  0.00215567    -0.13000
C621        C  0.49886931  0.20878449  0.58769895    -0.11500
C622        C  0.50220434  0.20806644  0.61871894    -0.13000
C623        C  0.42339464  0.22174456  0.54939854    -0.11500
C624        C  0.45469568  0.21882159  0.55085280    -0.13000
C625        C  0.49760047  0.18445130  0.53193018    -0.11500
C626        C  0.49926272  0.15684054  0.52178909    -0.13000
C627        C  0.26765688  0.48845798  0.51672830    -0.14600
C628        C  0.27562789  0.01182193  0.50210038    -0.29800
H629        H  0.25391341  0.47766400  0.49554843     0.14400
H630        H  0.28694724  0.03230914  0.04126000     0.15000
C631        C  0.26521626  0.46438021  0.57688284    -0.11500
C632        C  0.25655549  0.46479568  0.60796965    -0.13000
C633        C  0.27923610  0.43157434  0.53064418    -0.11500
C634        C  0.27342325  0.40171963  0.52756024    -0.13000
C635        C  0.32254793  0.48075311  0.54073333    -0.11500
C636        C  0.35363672  0.49484140  0.54117688    -0.13000
C637        C  0.25321846  0.14975525  0.77471621    -0.11500
C638        C  0.24887905  0.17705863  0.76389180    -0.13000
C639        C  0.20476204  0.21246955  0.75681473    -0.11500
C640        C  0.17293043  0.21540781  0.75942133    -0.13000
C641        C  0.25779981  0.21755227  0.71354475    -0.11500
C642        C  0.26571045  0.22421096  0.68202084    -0.13000
C643        C  0.01885952  0.24693334  0.53544683    -0.14600
C644        C  0.01883235  0.26166670  0.50295177    -0.29800
H645        H  0.03916434  0.25863180  0.55110147     0.14400
H646        H  0.00047742  0.24998647  0.98498804     0.15000
C647        C  0.11654500  0.28747542  0.98690664    -0.11500
C648        C  0.08540509  0.29004013  0.98431182    -0.13000
C649        C  0.03641055  0.30098945  0.91705755    -0.11500
C650        C  0.04104315  0.30041784  0.94767860    -0.13000
C651        C  0.04227805  0.35156909  0.51399884    -0.11500
C652        C  0.04258492  0.32404827  0.00344695    -0.13000
C653        C  0.02696718  0.49971249  0.75265746    -0.14600
C654        C  0.00788846  0.00317004  0.78437348    -0.29800
H655        H  0.03889831  0.52221334  0.73531888     0.14400
H656        H  0.49448064  0.97924861  0.79879410     0.15000
C657        C  0.02596406  0.09707583  0.76782440    -0.11500
C658        C  0.51828874  0.06626367  0.77472538    -0.13000
C659        C  0.42784994  0.03488634  0.80023515    -0.11500
C660        C  0.46025074  0.03546660  0.79835559    -0.13000
C661        C  0.51319517  0.04015803  0.86242331    -0.11500
C662        C  0.50863895  0.03764562  0.83199032    -0.13000
C663        C  0.26743956  0.26857314  0.76772014    -0.14600
C664        C  0.26555522  0.23531959  0.77285127    -0.29800
H665        H  0.25291501  0.27792891  0.74746425     0.14400
H666        H  0.28018562  0.22598611  0.79303860     0.15000
C667        C  0.28043944  0.35424207  0.76564140    -0.11500
C668        C  0.28476101  0.32688817  0.77631576    -0.13000
C669        C  0.35987976  0.28700635  0.78141327    -0.11500
C670        C  0.32822015  0.29068998  0.78426738    -0.13000
C671        C  0.27441800  0.28698746  0.82683063    -0.11500
C672        C  0.26586129  0.28152696  0.85839382    -0.13000
C673        C  0.28860625  0.79354141  0.28925506    -0.00700
C674        C  0.49942848  0.53570800  0.29693609    -0.00700
C675        C  0.04607768  0.79437962  0.48659244    -0.00700
C676        C  0.24447966  0.71100942  0.25200481    -0.00700
C677        C  0.28472715  0.96565534  0.04129692    -0.00700
C678        C  0.49296197  0.71451170  0.05225187    -0.00700
C679        C  0.25463543  0.54441683  0.49705740    -0.00700
C680        C  0.03550032  0.96694461  0.24035363    -0.00700
Zr681      Zr  0.47545247  0.54235256  0.48854687     2.17500
O682        O  0.43582098  0.56811642  0.45368294    -0.49500
O683        O  0.48507977  0.60250332  0.00269986    -0.72700
O684        O  0.41271157  0.52572857  0.01489974    -0.79500
O685        O  0.04642085  0.53319759  0.40889231    -0.81300
O686        O  0.40709406  0.99359615  0.06496140    -0.76900
O687        O  0.48930014  0.54389818  0.42352012    -0.88500
O688        O  0.52984250  0.61404868  0.03739179    -0.74500
O689        O  0.48766346  0.54425748  0.04891914    -0.84000
O690        O  0.03964780  0.56182227  0.48961526    -0.83700
O691        O  0.45956782  0.98404266  0.01220178    -0.70400
O692        O  0.00769339  0.00233387  0.46193513    -0.82600
Zr693      Zr  0.06178716  0.96614523  0.05057208     2.26400
Zr694      Zr  0.46791665  0.98588702  0.07308708     2.06300
Zr695      Zr  0.07065586  0.52082404  0.46282288     2.10000
Zr696      Zr  0.05374399  0.56347879  0.04613386     1.78800
O697        O  0.09680362  0.99093388  0.41445543    -0.91400
O698        O  0.03648306  0.58153310  0.10426566    -0.39200
O699        O  0.08250856  0.52158733  0.01990428    -0.75800
O700        O  0.03465006  0.50855719  0.07534688    -0.94500
O701        O  0.99852533  0.94572650  0.04891370    -0.87800
O702        O  0.05424606  0.96497356  0.48862801    -0.90600
C703        C  0.50515674  0.62241817  0.02060182     1.03100
C704        C  0.01582927  0.53982942  0.40176919     1.16100
C705        C  0.39462571  0.50987856  0.04365558     1.06800
O706        O  0.44561919  0.51404245  0.12586585    -0.92800
O707        O  0.98586715  0.96562175  0.13018737    -0.88500
O708        O  0.04408143  0.95695121  0.11542101    -0.81700
C709        C  0.01604806  0.95864562  0.13805585     1.13500
O710        O  0.44518193  0.93784855  0.44685001    -0.94800
Zr711      Zr  0.99038426  0.94617103  0.48841248     1.88900
O712        O  0.05687946  0.90643985  0.03566395    -0.71400
O713        O  0.42917700  0.93072750  0.08933309    -0.50700
O714        O  0.43801077  0.90401675  0.00738118    -0.95400
O715        O  0.01231512  0.93290287  0.42934205    -0.52600
O716        O  0.01304867  0.89448772  0.00011027    -0.71900
C717        C  0.03730646  0.88622366  0.01754345     1.00800
O718        O  0.10864248  0.44154488  0.07719306    -0.60700
O719        O  0.10959283  0.57360175  0.43692002    -0.55500
O720        O  0.12637044  0.99180934  0.03104493    -0.92200
O721        O  0.13157210  0.51977601  0.47642926    -0.90700
O722        O  0.10917061  0.60117105  0.01782828    -0.91000
O723        O  0.10241941  0.57156692  0.08301676    -0.89800
C724        C  0.14456555  0.50923385  0.50341406     1.19300
H725        H  0.04755710  0.58380560  0.47705139     0.35200
H726        H  0.04094267  0.51304205  0.09841612     0.46100
H727        H  0.06869338  0.95031700  0.47694822     0.39600
H728        H  0.43521592  0.97332058  0.00908643     0.36100
H729        H  0.04716537  0.60587011  0.10264542     0.27800
H730        H  0.41287938  0.93380621  0.11075545     0.33800
H731        H  0.43995100  0.88415473  0.99394533     0.39700
H732        H  0.10112174  0.61537444  0.99954113     0.34200
H733        H  0.12686287  0.56691000  0.41818680     0.33000
H734        H  0.11078054  0.50664424  0.39927512     0.34700
H735        H  0.03363059  0.92211846  0.43203594     0.33700
H736        H  0.11138582  0.55000018  0.08348516     0.37700
H737        H  0.11652371  0.45744365  0.09458281     0.30400
H738        H  0.42128586  0.57989211  0.47042868     0.34600
H739        H  0.44385021  0.91452498  0.43997314     0.37500
H740        H  0.09371410  0.58554100  0.42401642     0.30100
H741        H  0.09478881  0.42105657  0.09153409     0.43000
H742        H  0.44474492  0.53719571  0.11659456     0.33000
H743        H  0.50704326  0.57982374  0.10701751     0.40700
H744        H  0.02295738  0.95502607  0.41630013     0.32500
H745        H  0.41288981  0.92762680  0.07088971     0.32600
H746        H  0.42022940  0.04883255  0.44627119     0.32800
Zr747      Zr  0.30510193  0.55368932  0.30416517     2.17500
O748        O  0.34957782  0.60291214  0.31388203    -0.49500
O749        O  0.29298617  0.55346172  0.36821498    -0.72700
O750        O  0.28387228  0.60721823  0.29281662    -0.79500
O751        O  0.37716569  0.49610667  0.29486957    -0.81300
O752        O  0.22686254  0.59566837  0.27655890    -0.76900
O753        O  0.37016848  0.55006290  0.30230884    -0.88500
O754        O  0.25216700  0.50606931  0.39028205    -0.74500
O755        O  0.24085708  0.53385184  0.31953989    -0.84000
O756        O  0.29653080  0.49644228  0.32769605    -0.83700
O757        O  0.27998527  0.55878188  0.24968782    -0.70400
O758        O  0.33092179  0.52369295  0.25834059    -0.82600
Zr759      Zr  0.23052954  0.95099928  0.23383048     2.26400
Zr760      Zr  0.21568607  0.53767549  0.26546635     2.06300
Zr761      Zr  0.32196664  0.96731193  0.27042387     2.10000
Zr762      Zr  0.23473638  0.97636271  0.33263486     1.78800
O763        O  0.37109937  0.95640920  0.22749487    -0.91400
O764        O  0.17745048  0.49024034  0.37399913    -0.39200
O765        O  0.25811765  0.94616363  0.28659724    -0.75800
O766        O  0.20551898  0.97995250  0.28125592    -0.94500
O767        O  0.23943454  0.00801806  0.21013906    -0.87800
O768        O  0.29491661  0.97059506  0.21753045    -0.90600
C769        C  0.27366447  0.53349008  0.39357500     1.03100
C770        C  0.38931825  0.52665144  0.29974292     1.16100
C771        C  0.25470658  0.61583573  0.28352633     1.06800
O772        O  0.16378216  0.55086651  0.30314259    -0.92800
O773        O  0.15949885  0.50929949  0.24861487    -0.88500
O774        O  0.16560813  0.95469410  0.23257135    -0.81700
C775        C  0.14637526  0.97801730  0.23561033     1.13500
O776        O  0.35088157  0.57791817  0.18729806    -0.94800
Zr777      Zr  0.30433313  0.52741847  0.20532564     1.88900
O778        O  0.24130360  0.95157108  0.16963969    -0.71400
O779        O  0.20547179  0.56950852  0.21282254    -0.50700
O780        O  0.28212228  0.56638190  0.16594338    -0.95400
O781        O  0.36207958  0.51641501  0.17596255    -0.52600
O782        O  0.28053075  0.99992711  0.14760547    -0.71900
C783        C  0.25949233  0.97227643  0.14427122     1.00400
O784        O  0.19305810  0.89719327  0.22485371    -0.60700
O785        O  0.33755004  0.93305936  0.31881017    -0.55500
O786        O  0.24982127  0.89791842  0.25031399    -0.92200
O787        O  0.30818618  0.90876247  0.26335640    -0.90700
O788        O  0.25786479  0.93709960  0.37071329    -0.91000
O789        O  0.19089237  0.92450159  0.35169015    -0.89800
C790        C  0.27909761  0.88893596  0.25877627     1.19300
H791        H  0.30922619  0.49438533  0.34785708     0.35200
H792        H  0.17999030  0.97107286  0.28935783     0.46100
H793        H  0.30479981  0.95684054  0.20055070     0.39600
H794        H  0.28486208  0.58147088  0.23874838     0.36100
H795        H  0.17702617  0.97816822  0.38809089     0.27800
H796        H  0.18510372  0.58098493  0.22093085     0.33800
H797        H  0.29257508  0.56257300  0.14186316     0.39700
H798        H  0.24641230  0.93960765  0.39483944     0.34200
H799        H  0.36088731  0.92656742  0.30937881     0.33000
H800        H  0.38321359  0.94068849  0.24048370     0.34700
H801        H  0.36065925  0.51982182  0.15044028     0.33700
H802        H  0.18524232  0.91475131  0.32952329     0.37700
H803        H  0.17406139  0.89202244  0.24580996     0.30400
H804        H  0.33672324  0.61480480  0.33187573     0.34600
H805        H  0.35402259  0.58040001  0.16120962     0.37500
H806        H  0.34422473  0.94875474  0.33673723     0.30100
H807        H  0.17967326  0.90172331  0.20495790     0.43000
H808        H  0.17248194  0.55430488  0.32620278     0.33000
H809        H  0.18280397  0.51503594  0.37446437     0.40700
H810        H  0.35289631  0.98964608  0.16055646     0.32500
H811        H  0.22711092  0.58789066  0.20739664     0.32600
H812        H  0.35346489  0.61799020  0.29193019     0.32800
Zr813      Zr  0.29282085  0.70342519  0.06118020     2.17500
O814        O  0.29551816  0.65836730  0.10551511    -0.49500
O815        O  0.35923498  0.70780002  0.05952015    -0.72700
O816        O  0.28554839  0.64731298  0.03909109    -0.79500
O817        O  0.26805492  0.76122603  0.13341677    -0.81300
O818        O  0.27489961  0.66183596  0.47947812    -0.76900
O819        O  0.27880559  0.70859714  0.12450571    -0.88500
O820        O  0.38914259  0.75324763  0.02312233    -0.74500
O821        O  0.31912503  0.71983571  0.00144526    -0.84000
O822        O  0.31836130  0.76202356  0.05886916    -0.83700
O823        O  0.24249112  0.69203510  0.02723730    -0.70400
O824        O  0.24268319  0.73108390  0.07915005    -0.82600
Zr825      Zr  0.24629662  0.80578980  0.47892074     2.26400
Zr826      Zr  0.26907627  0.71958619  0.46525440     2.06300
Zr827      Zr  0.26829031  0.78981819  0.07568277     2.10000
Zr828      Zr  0.34358977  0.77858731  0.99898335     1.78800
O829        O  0.21964391  0.80678643  0.11468368    -0.91400
O830        O  0.38415256  0.77538178  0.44437739    -0.39200
O831        O  0.29421393  0.80653731  0.01586169    -0.75800
O832        O  0.29666914  0.77817094  0.46063305    -0.94500
O833        O  0.21946682  0.74758464  0.48307093    -0.87800
O834        O  0.21890825  0.77978376  0.04112895    -0.90600
C835        C  0.38841791  0.72759331  0.04429200     1.03100
C836        C  0.27160189  0.73158824  0.14450198     1.16100
C837        C  0.27846428  0.64499421  0.50777967     1.06800
O838        O  0.31425030  0.70462064  0.42066242    -0.92800
O839        O  0.26430258  0.74542794  0.40766395    -0.88500
O840        O  0.25381334  0.79825488  0.41559704    -0.81700
C841        C  0.25980933  0.77457000  0.39612226     1.13500
O842        O  0.16927357  0.67111437  0.08461541    -0.94800
Zr843      Zr  0.19383814  0.72114168  0.04417257     1.88900
O844        O  0.17993090  0.80153898  0.48025895    -0.71400
O845        O  0.21775789  0.68510986  0.44349693    -0.50700
O846        O  0.15840968  0.68640742  0.51838772    -0.95400
O847        O  0.15624675  0.73348197  0.09654616    -0.52600
O848        O  0.14997977  0.75733624  0.51834893    -0.71900
C849        C  0.15071674  0.78209337  0.49593778     1.00400
O850        O  0.24384044  0.85639353  0.44191872    -0.60700
O851        O  0.31584004  0.82460987  0.10243399    -0.55500
O852        O  0.26112107  0.85201406  0.99956813    -0.92200
O853        O  0.26954841  0.84853900  0.05732687    -0.90700
O854        O  0.37898620  0.82436705  0.02557737    -0.91000
O855        O  0.37034540  0.83675172  0.45414331    -0.89800
C856        C  0.26774193  0.86513775  0.02823778     1.19300
H857        H  0.33664370  0.76623669  0.07450587     0.35200
H858        H  0.30851377  0.78596946  0.43710649     0.46100
H859        H  0.20058333  0.79296124  0.04833873     0.39600
H860        H  0.23079038  0.66865828  0.02996888     0.36100
H861        H  0.40947694  0.78461276  0.44838830     0.27800
H862        H  0.22914467  0.67416912  0.42374436     0.33800
H863        H  0.13272764  0.68879629  0.52538928     0.39700
H864        H  0.40484283  0.82248145  0.01867907     0.34200
H865        H  0.30238460  0.83493672  0.12139286     0.33000
H866        H  0.23217152  0.81852662  0.13293887     0.34700
H867        H  0.13074512  0.72792131  0.09136687     0.33700
H868        H  0.34915987  0.84760026  0.45094983     0.37700
H869        H  0.26676381  0.86100395  0.42505871     0.30400
H870        H  0.31561426  0.64725201  0.09584942     0.34600
H871        H  0.14229289  0.66857975  0.08697473     0.37500
H872        H  0.32795594  0.80864846  0.11505375     0.30100
H873        H  0.22409025  0.84980467  0.42740224     0.43000
H874        H  0.33379356  0.69891148  0.43375110     0.33000
H875        H  0.38239667  0.75065458  0.44691161     0.40700
H876        H  0.16126092  0.75831079  0.09653155     0.32500
H877        H  0.20832479  0.66657866  0.46217333     0.32600
H878        H  0.27284421  0.64140638  0.10588926     0.32800
Zr879      Zr  0.05347141  0.71478370  0.22853434     2.17500
O880        O  0.09438202  0.71100753  0.17486577    -0.49500
O881        O  0.04379343  0.65378317  0.24169031    -0.72700
O882        O  0.11628730  0.71307609  0.24016757    -0.79500
O883        O  0.47650528  0.72516782  0.17250432    -0.81300
O884        O  0.12647460  0.73862939  0.29018917    -0.76900
O885        O  0.03143477  0.70789695  0.17124511    -0.88500
O886        O  0.00512180  0.64153621  0.29322011    -0.74500
O887        O  0.04698053  0.70712009  0.29125422    -0.84000
O888        O  0.48798137  0.69776716  0.24764749    -0.83700
O889        O  0.07973968  0.76824893  0.24745596    -0.70400
O890        O  0.02510344  0.76026826  0.20988893    -0.82600
Zr891      Zr  0.48038273  0.78960765  0.31257696     2.26400
Zr892      Zr  0.07195837  0.76042854  0.31051851     2.06300
Zr893      Zr  0.46095069  0.74430580  0.23006944     2.10000
Zr894      Zr  0.48093936  0.69034113  0.31006762     1.78800
O895        O  0.44132314  0.77725999  0.18329288    -0.91400
O896        O  0.00114366  0.66610552  0.36400348    -0.39200
O897        O  0.45305302  0.73661056  0.29305540    -0.75800
O898        O  0.00797705  0.74356451  0.33201836    -0.94500
O899        O  0.04431056  0.80637833  0.29255408    -0.87800
O900        O  0.48682427  0.79711963  0.24975870    -0.90600
C901        C  0.02575186  0.63334428  0.26733845     1.03100
C902        C  0.50290144  0.71296595  0.15697913     1.16100
C903        C  0.13644852  0.72284341  0.26381260     1.06800
O904        O  0.09261436  0.72858993  0.35746150    -0.92800
O905        O  0.05932628  0.78331928  0.36670556    -0.88500
O906        O  0.00422151  0.80013218  0.36933676    -0.81700
C907        C  0.03300888  0.79537215  0.38262805     1.13500
O908        O  0.09478065  0.82187514  0.17682259    -0.94800
Zr909      Zr  0.05007584  0.81294080  0.22998036     1.88900
O910        O  0.99083429  0.85114503  0.29986461    -0.71400
O911        O  0.12109682  0.80914555  0.30805509    -0.50700
O912        O  0.10747215  0.84838457  0.23858867    -0.95400
O913        O  0.02864365  0.83769811  0.17881458    -0.52600
O914        O  0.03243286  0.86350723  0.25027518    -0.71900
C915        C  0.01103452  0.87176668  0.27545404     1.00400
O916        O  0.44026197  0.79628033  0.36581754    -0.60700
O917        O  0.41118370  0.69630039  0.23064659    -0.55500
O918        O  0.41707900  0.79058505  0.30185159    -0.92200
O919        O  0.40631799  0.76542577  0.25174064    -0.90700
O920        O  0.42497343  0.65493263  0.29801680    -0.91000
O921        O  0.43280504  0.68180885  0.36033096    -0.89800
C922        C  0.39658510  0.78096505  0.27840627     1.19300
H923        H  0.47763311  0.67755671  0.23763700     0.35200
H924        H  0.00405939  0.73955901  0.35737594     0.46100
H925        H  0.47402568  0.81434407  0.24207284     0.39600
H926        H  0.10533669  0.77451113  0.23801563     0.36100
H927        H  0.99031760  0.64184336  0.36496205     0.27800
H928        H  0.13550394  0.80349816  0.32677496     0.33800
H929        H  0.10564237  0.87137779  0.22957301     0.39700
H930        H  0.42758738  0.63166586  0.30514141     0.34200
H931        H  0.39088452  0.70598787  0.22254306     0.33000
H932        H  0.42050404  0.76199509  0.17575649     0.34700
H933        H  0.00886596  0.84918154  0.18849372     0.33700
H934        H  0.43252300  0.70463353  0.36813836     0.37700
H935        H  0.42942487  0.81623520  0.36024137     0.30400
H936        H  0.10611334  0.69145494  0.17964887     0.34600
H937        H  0.10050137  0.84652582  0.17060774     0.37500
H938        H  0.41923961  0.68331968  0.21108118     0.30100
H939        H  0.41966703  0.77685833  0.36825681     0.43000
H940        H  0.06990141  0.71752787  0.37280172     0.33000
H941        H  0.02779561  0.66704284  0.35819323     0.40700
H942        H  0.01589891  0.81820674  0.16794928     0.32500
H943        H  0.13722826  0.80833621  0.28578799     0.32600
H944        H  0.11426005  0.73097782  0.17322734     0.32800
C945        C  0.07515284  0.96829286  0.23685336    -0.11500
C946        C  0.10783437  0.97015393  0.23438049    -0.13000
C947        C  0.01822592  0.93644085  0.26355239    -0.11500
C948        C  0.01049092  0.90715330  0.27474836    -0.13000
C949        C  0.02511173  0.96179617  0.20499566    -0.11500
C950        C  0.02019788  0.95757221  0.17487340    -0.13000
C951        C  0.26374468  0.57942061  0.50530880    -0.11500
C952        C  0.27217529  0.60919899  0.50761995    -0.13000
C953        C  0.26883558  0.54367878  0.46001585    -0.11500
C954        C  0.27508735  0.54182633  0.42885915    -0.13000
C955        C  0.18283439  0.52069715  0.50377506    -0.11500
C956        C  0.21487686  0.53274612  0.50163867    -0.13000
C957        C  0.49860023  0.70855188  0.08931131    -0.11500
C958        C  0.50177991  0.70786816  0.12031304    -0.13000
C959        C  0.42344204  0.72102303  0.05068743    -0.11500
C960        C  0.45473371  0.71835580  0.05229780    -0.13000
C961        C  0.49787869  0.68425657  0.03373772    -0.11500
C962        C  0.49974843  0.65661339  0.02388106    -0.13000
C963        C  0.26815041  0.98795124  0.01764438    -0.14600
C964        C  0.27555662  0.51119548  0.00133585    -0.29800
H965        H  0.25361222  0.97704337  0.99700115     0.14400
H966        H  0.28503619  0.53249797  0.54137346     0.15000
C967        C  0.26703249  0.96378990  0.07769081    -0.11500
C968        C  0.25841091  0.96427275  0.10881995    -0.13000
C969        C  0.28015457  0.93102226  0.03095271    -0.11500
C970        C  0.27452290  0.90116736  0.02774260    -0.13000
C971        C  0.32372171  0.98021364  0.04016234    -0.11500
C972        C  0.35496379  0.99431501  0.03961005    -0.13000
C973        C  0.25353150  0.65051284  0.27644258    -0.11500
C974        C  0.24895635  0.67753142  0.26504047    -0.13000
C975        C  0.20517034  0.71319093  0.25737078    -0.11500
C976        C  0.17344252  0.71652076  0.26024166    -0.13000
C977        C  0.25797145  0.71711004  0.21381205    -0.11500
C978        C  0.26573886  0.72324801  0.18217908    -0.13000
C979        C  0.01926023  0.74682250  0.03640468    -0.14600
C980        C  0.01921497  0.76146232  0.00383960    -0.29800
H981        H  0.03922949  0.75894133  0.05215973     0.14400
H982        H  0.99951340  0.75009326  0.48717957     0.15000
C983        C  0.11566869  0.78798879  0.48850287    -0.11500
C984        C  0.08439144  0.79041766  0.48618622    -0.13000
C985        C  0.03539114  0.80138359  0.41896962    -0.11500
C986        C  0.03975134  0.80072713  0.44972646    -0.13000
C987        C  0.04265337  0.85177615  0.01465812    -0.11500
C988        C  0.04155566  0.82446401  0.50562083    -0.13000
C989        C  0.02711162  0.00041020  0.25295578    -0.14600
C990        C  0.00783829  0.50404426  0.28377318    -0.29800
H991        H  0.03920937  0.02295275  0.23573752     0.14400
H992        H  0.49518002  0.47990303  0.30026830     0.15000
C993        C  0.02728779  0.59814215  0.26787485    -0.11500
C994        C  0.51787974  0.56700143  0.27577574    -0.13000
C995        C  0.42776295  0.53447115  0.30069447    -0.11500
C996        C  0.46017802  0.53538674  0.29895327    -0.13000
C997        C  0.51147933  0.54127201  0.36378966    -0.11500
C998        C  0.50786794  0.53862718  0.33316753    -0.13000
C999        C  0.26756504  0.76896506  0.26779854    -0.14600
C1000       C  0.26621274  0.73581494  0.27275648    -0.29800
H1001       H  0.25271254  0.77817473  0.24773436     0.14400
H1002       H  0.28117997  0.72669075  0.29278065     0.15000
C1003       C  0.27955113  0.85429239  0.26633886    -0.11500
C1004       C  0.28420463  0.82706495  0.27674121    -0.13000
C1005       C  0.35963550  0.78762265  0.28227768    -0.11500
C1006       C  0.32800532  0.79136917  0.28490082    -0.13000
C1007       C  0.27376360  0.78730902  0.32699889    -0.11500
C1008       C  0.26484348  0.78186313  0.35848714    -0.13000
C1009       C  0.28801087  0.78981065  0.79253860    -0.00700
C1010       C  0.49875945  0.53482033  0.79676849    -0.00700
C1011       C  0.04714733  0.79260606  0.98733283    -0.00700
C1012       C  0.24383430  0.71191351  0.74812349    -0.00700
C1013       C  0.28566139  0.97227680  0.55044151    -0.00700
C1014       C  0.49167361  0.71564262  0.55096493    -0.00700
C1015       C  0.25761744  0.53812636  0.98617022    -0.00700
C1016       C  0.03753907  0.96731131  0.74040495    -0.00700
Zr1017     Zr  0.47756216  0.54264554  0.98889304     2.17500
O1018       O  0.43833949  0.56863269  0.95379245    -0.49500
O1019       O  0.48250967  0.60252057  0.50193269    -0.72700
O1020       O  0.41044663  0.52345051  0.51304043    -0.79500
O1021       O  0.04768413  0.53282591  0.90668826    -0.81300
O1022       O  0.40962512  0.99762633  0.56704385    -0.76900
O1023       O  0.49031593  0.54350552  0.92388082    -0.88500
O1024       O  0.52663880  0.61421904  0.53727535    -0.74500
O1025       O  0.48478707  0.54412943  0.54889296    -0.84000
O1026       O  0.04276325  0.56186500  0.98641983    -0.83700
O1027       O  0.45991664  0.98513643  0.51305480    -0.70400
O1028       O  0.00827566  0.00236375  0.96264553    -0.82600
Zr1029     Zr  0.06254176  0.96684185  0.54934423     2.26400
Zr1030     Zr  0.47006536  0.98775138  0.57341292     2.06300
Zr1031     Zr  0.07205616  0.51959646  0.96005881     2.10000
Zr1032     Zr  0.04859665  0.56244111  0.54995345     1.78800
O1033       O  0.10039255  0.99355407  0.91689259    -0.91400
O1034       O  0.02750098  0.57902798  0.60781133    -0.39200
O1035       O  0.07879327  0.52181969  0.52321352    -0.75800
O1036       O  0.03038040  0.50695026  0.57772156    -0.94500
O1037       O  0.99888983  0.94702428  0.54904214    -0.87800
O1038       O  0.05524763  0.96552638  0.98937316    -0.90600
C1039       C  0.50226100  0.62257600  0.52003929     1.03100
C1040       C  0.01736149  0.54044386  0.90014399     1.16100
C1041       C  0.39201746  0.50633482  0.54097505     1.06800
O1042       O  0.44183553  0.51569214  0.62379113    -0.92800
O1043       O  0.98856440  0.96849001  0.62996745    -0.88500
O1044       O  0.04597735  0.95815586  0.61439408    -0.81700
C1045       C  0.01856649  0.96068970  0.63742426     1.13500
O1046       O  0.44787374  0.93973716  0.94362581    -0.94800
Zr1047     Zr  0.99179899  0.94566941  0.98785125     1.88900
O1048       O  0.05517545  0.90669343  0.53616319    -0.71400
O1049       O  0.42837129  0.93476423  0.59341492    -0.50700
O1050       O  0.43749047  0.90525027  0.51040550    -0.95400
O1051       O  0.01680666  0.93203201  0.92982921    -0.52600
O1052       O  0.01149961  0.89501683  0.50030620    -0.71900
C1053       C  0.03537501  0.88660649  0.51814379     1.00800
O1054       O  0.10627851  0.44178994  0.57927869    -0.60700
O1055       O  0.11233686  0.57212790  0.93540804    -0.55500
O1056       O  0.12736985  0.98992578  0.52706614    -0.92200
O1057       O  0.13302393  0.51493739  0.97023778    -0.90700
O1058       O  0.10327285  0.60206894  0.52332337    -0.91000
O1059       O  0.09624321  0.56910653  0.58808952    -0.89800
C1060       C  0.14668248  0.50492212  0.99697623     1.19300
H1061       H  0.05047038  0.58363170  0.97323882     0.35200
H1062       H  0.03614118  0.51110034  0.60102742     0.46100
H1063       H  0.07038682  0.95140221  0.97766745     0.39600
H1064       H  0.43512355  0.97504844  0.51080098     0.36100
H1065       H  0.03961727  0.60284685  0.60781678     0.27800
H1066       H  0.41337804  0.93972000  0.61487285     0.33800
H1067       H  0.44378882  0.89483682  0.53228076     0.39700
H1068       H  0.10315392  0.62228955  0.53656358     0.34200
H1069       H  0.12962733  0.56541542  0.91671078     0.33000
H1070       H  0.11385012  0.50494554  0.89753685     0.34700
H1071       H  0.03757181  0.92086846  0.93377721     0.33700
H1072       H  0.10794210  0.54921121  0.58497196     0.37700
H1073       H  0.11283018  0.45707661  0.59760880     0.30400
H1074       H  0.42439191  0.58107888  0.97031969     0.34600
H1075       H  0.44641726  0.91666767  0.93599136     0.37500
H1076       H  0.09701108  0.58468271  0.92245959     0.30100
H1077       H  0.09277631  0.42057894  0.59255423     0.43000
H1078       H  0.43904312  0.53776325  0.61300282     0.33000
H1079       H  0.50384961  0.57893948  0.60798235     0.40700
H1080       H  0.02836421  0.95405523  0.91703091     0.32500
H1081       H  0.41119989  0.93161697  0.57573762     0.32600
H1082       H  0.42013108  0.04791160  0.94474764     0.32800
Zr1083     Zr  0.30635340  0.55430907  0.79243583     2.17500
O1084       O  0.35230543  0.60431359  0.79647054    -0.49500
O1085       O  0.29489468  0.55602648  0.85615891    -0.72700
O1086       O  0.28361276  0.60719893  0.78335314    -0.79500
O1087       O  0.37870539  0.49760213  0.78304095    -0.81300
O1088       O  0.22644539  0.59535902  0.76747265    -0.76900
O1089       O  0.37076412  0.55055521  0.79432036    -0.88500
O1090       O  0.25473734  0.50837258  0.87855777    -0.74500
O1091       O  0.24263260  0.53334706  0.81026513    -0.84000
O1092       O  0.30001000  0.49701576  0.81497081    -0.83700
O1093       O  0.27873036  0.55910726  0.73941481    -0.70400
O1094       O  0.33158297  0.52540796  0.74518585    -0.82600
Zr1095     Zr  0.23084934  0.94965729  0.74364166     2.26400
Zr1096     Zr  0.21490579  0.53700585  0.75765818     2.06300
Zr1097     Zr  0.32020527  0.96534977  0.78356440     2.10000
Zr1098     Zr  0.23166911  0.97620212  0.84251926     1.78800
O1099       O  0.37011669  0.95037784  0.74453592    -0.91400
O1100       O  0.17970539  0.48420566  0.86516536    -0.39200
O1101       O  0.25600127  0.94486962  0.79785499    -0.75800
O1102       O  0.20450138  0.97937758  0.78976523    -0.94500
O1103       O  0.24102112  0.00652334  0.71915584    -0.87800
O1104       O  0.29546721  0.96854685  0.72935469    -0.90600
C1105       C  0.27549710  0.53628553  0.88161050     1.03100
C1106       C  0.39008910  0.52737361  0.79094403     1.16100
C1107       C  0.25426049  0.61561706  0.77439940     1.06800
O1108       O  0.16454216  0.54640904  0.80010234    -0.92800
O1109       O  0.15804303  0.50822135  0.74287774    -0.88500
O1110       O  0.16681462  0.95454951  0.73894417    -0.81700
C1111       C  0.14792404  0.97821186  0.74050726     1.13500
O1112       O  0.35331736  0.57593716  0.67787998    -0.94800
Zr1113     Zr  0.30223073  0.52877863  0.69373581     1.88900
O1114       O  0.24335419  0.94943527  0.67961076    -0.71400
O1115       O  0.19744752  0.56812953  0.70809508    -0.50700
O1116       O  0.28198082  0.57329533  0.66007389    -0.95400
O1117       O  0.35455290  0.51538823  0.65639535    -0.52600
O1118       O  0.28757525  0.99479910  0.65856298    -0.71900
C1119       C  0.26475926  0.96843457  0.65474059     1.00400
O1120       O  0.19279454  0.89552249  0.73707814    -0.60700
O1121       O  0.33287640  0.93422997  0.83570093    -0.55500
O1122       O  0.25010767  0.89619852  0.75869758    -0.92200
O1123       O  0.30629881  0.90665836  0.77687551    -0.90700
O1124       O  0.24987580  0.93350642  0.88044741    -0.91000
O1125       O  0.18247976  0.92787548  0.86028581    -0.89800
C1126       C  0.27838460  0.88700030  0.76934847     1.19300
H1127       H  0.31351353  0.49519956  0.83461805     0.35200
H1128       H  0.17870524  0.97082336  0.79685028     0.46100
H1129       H  0.30586780  0.95451464  0.71293534     0.39600
H1130       H  0.28294511  0.58191698  0.72878405     0.36100
H1131       H  0.17672477  0.98311564  0.89868286     0.27800
H1132       H  0.17734425  0.57884823  0.71859608     0.33800
H1133       H  0.28981335  0.57020429  0.63507815     0.39700
H1134       H  0.24057082  0.93779228  0.90472086     0.34200
H1135       H  0.35203417  0.92171385  0.82677133     0.33000
H1136       H  0.38208984  0.93646537  0.75986820     0.34700
H1137       H  0.35193237  0.52346746  0.63212971     0.33700
H1138       H  0.18681614  0.91139628  0.84294500     0.37700
H1139       H  0.17240560  0.89238558  0.75676434     0.30400
H1140       H  0.34116515  0.61714063  0.81466926     0.34600
H1141       H  0.35416096  0.58195581  0.65235768     0.37500
H1142       H  0.34552488  0.95134416  0.84958593     0.30100
H1143       H  0.18139117  0.89887899  0.71554460     0.43000
H1144       H  0.17629026  0.55698152  0.81942560     0.33000
H1145       H  0.18201661  0.50894827  0.86498321     0.40700
H1146       H  0.36191523  0.98900180  0.68405121     0.32500
H1147       H  0.21818779  0.58707171  0.70071656     0.32600
H1148       H  0.35434828  0.61829943  0.77398528     0.32800
Zr1149     Zr  0.29403650  0.71343063  0.55839420     2.17500
O1150       O  0.29743660  0.66848953  0.60262247    -0.49500
O1151       O  0.36005302  0.71620584  0.55603909    -0.72700
O1152       O  0.28449965  0.65750315  0.53684245    -0.79500
O1153       O  0.26938474  0.77042649  0.63111803    -0.81300
O1154       O  0.27647383  0.65203881  0.98159047    -0.76900
O1155       O  0.28021164  0.71794718  0.62156812    -0.88500
O1156       O  0.39065510  0.76057905  0.51854371    -0.74500
O1157       O  0.31964642  0.72932095  0.49842321    -0.84000
O1158       O  0.32064825  0.77174639  0.55586887    -0.83700
O1159       O  0.24292898  0.70256815  0.52547488    -0.70400
O1160       O  0.24492699  0.74176095  0.57733796    -0.82600
Zr1161     Zr  0.24508034  0.79528333  0.98113652     2.26400
Zr1162     Zr  0.26940567  0.70940456  0.96734571     2.06300
Zr1163     Zr  0.27122816  0.80017665  0.57324195     2.10000
Zr1164     Zr  0.34518233  0.78784246  0.49576164     1.78800
O1165       O  0.22386078  0.81814872  0.61289729    -0.91400
O1166       O  0.38414962  0.76595456  0.94884621    -0.39200
O1167       O  0.29620461  0.81640725  0.51297968    -0.75800
O1168       O  0.29591084  0.76822705  0.96309422    -0.94500
O1169       O  0.21911673  0.73693060  0.98412634    -0.87800
O1170       O  0.22117691  0.79084960  0.53936295    -0.90600
C1171       C  0.38949379  0.73497173  0.54008738     1.03100
C1172       C  0.27264776  0.74052814  0.64185921     1.16100
C1173       C  0.28023971  0.63500065  0.00969397     1.06800
O1174       O  0.31733880  0.69593408  0.92474720    -0.92800
O1175       O  0.26438238  0.73480439  0.90958909    -0.88500
O1176       O  0.25259115  0.78715052  0.91810413    -0.81700
C1177       C  0.25924532  0.76384921  0.89839861     1.13500
O1178       O  0.17041690  0.68583791  0.58846554    -0.94800
Zr1179     Zr  0.19531761  0.73233973  0.54358967     1.88900
O1180       O  0.17899256  0.79271203  0.98365123    -0.71400
O1181       O  0.21974220  0.67327412  0.94480421    -0.50700
O1182       O  0.15670244  0.67744329  0.01622487    -0.95400
O1183       O  0.15765326  0.74721017  0.59472523    -0.52600
O1184       O  0.14831843  0.74773318  0.02028997    -0.71900
C1185       C  0.14948429  0.77347933  0.99888793     1.00400
O1186       O  0.24189450  0.84550325  0.94391922    -0.60700
O1187       O  0.32014493  0.83432853  0.59875642    -0.55500
O1188       O  0.26059347  0.86257787  0.49790092    -0.92200
O1189       O  0.27211639  0.85873922  0.55475732    -0.90700
O1190       O  0.38072970  0.83303133  0.52302059    -0.91000
O1191       O  0.36818741  0.82743727  0.95721858    -0.89800
C1192       C  0.26851963  0.87548565  0.52634871     1.19300
H1193       H  0.33919736  0.77569307  0.57124386     0.35200
H1194       H  0.30790367  0.77621318  0.93962263     0.46100
H1195       H  0.20317636  0.80427138  0.54663342     0.39600
H1196       H  0.23060082  0.67933927  0.52844286     0.36100
H1197       H  0.40917801  0.77538599  0.95351123     0.27800
H1198       H  0.23201640  0.65895355  0.92907522     0.33800
H1199       H  0.13104377  0.67966285  0.02366888     0.39700
H1200       H  0.40643786  0.83015362  0.51742124     0.34200
H1201       H  0.30744203  0.84718413  0.61583453     0.33000
H1202       H  0.23717860  0.83078381  0.63011458     0.34700
H1203       H  0.13290342  0.74586767  0.58777807     0.33700
H1204       H  0.34678663  0.83793270  0.95391376     0.37700
H1205       H  0.26456518  0.85001880  0.92673002     0.30400
H1206       H  0.31709878  0.65709258  0.59249385     0.34600
H1207       H  0.14348986  0.68208180  0.58911624     0.37500
H1208       H  0.33005110  0.81822690  0.61356588     0.30100
H1209       H  0.22185330  0.83865509  0.92980309     0.43000
H1210       H  0.33186192  0.71805144  0.91465529     0.33000
H1211       H  0.38254216  0.74124345  0.95171678     0.40700
H1212       H  0.16645526  0.77148742  0.59649114     0.32500
H1213       H  0.20719877  0.65767213  0.96526389     0.32600
H1214       H  0.27452252  0.65168585  0.60365852     0.32800
Zr1215     Zr  0.05260371  0.71448899  0.72759564     2.17500
O1216       O  0.09353515  0.70728779  0.67507707    -0.49500
O1217       O  0.04191296  0.65336339  0.74072963    -0.72700
O1218       O  0.11535338  0.71258543  0.73892050    -0.79500
O1219       O  0.47567180  0.72568180  0.67204739    -0.81300
O1220       O  0.12517306  0.73586400  0.79017885    -0.76900
O1221       O  0.03099270  0.70854319  0.67023265    -0.88500
O1222       O  0.00153682  0.64073660  0.79108907    -0.74500
O1223       O  0.04501404  0.70539829  0.79014976    -0.84000
O1224       O  0.48788510  0.69766708  0.74672480    -0.83700
O1225       O  0.07983844  0.76711757  0.74775491    -0.70400
O1226       O  0.02607255  0.76136488  0.70887670    -0.82600
Zr1227     Zr  0.48079672  0.78885235  0.81281759     2.26400
Zr1228     Zr  0.07092328  0.75774713  0.81074290     2.06300
Zr1229     Zr  0.46155892  0.74491240  0.72965988     2.10000
Zr1230     Zr  0.48078000  0.68943365  0.80917520     1.78800
O1231       O  0.44540701  0.78222658  0.68441212    -0.91400
O1232       O  0.99808884  0.66420457  0.86127416    -0.39200
O1233       O  0.45347225  0.73620383  0.79258217    -0.75800
O1234       O  0.00662595  0.74236653  0.83147133    -0.94500
O1235       O  0.04530463  0.80513439  0.79305065    -0.87800
O1236       O  0.48761891  0.79727498  0.75006106    -0.90600
C1237       C  0.02294172  0.63268666  0.76572305     1.03100
C1238       C  0.50200129  0.71376531  0.65605127     1.16100
C1239       C  0.13533602  0.72130381  0.76296427     1.06800
O1240       O  0.08686201  0.72277246  0.85810611    -0.92800
O1241       O  0.05982792  0.78049115  0.86695032    -0.88500
O1242       O  0.00531906  0.79833920  0.86970146    -0.81700
C1243       C  0.03394154  0.79291171  0.88299375     1.13500
O1244       O  0.09950444  0.81947062  0.67967063    -0.94800
Zr1245     Zr  0.05197733  0.81306374  0.73045131     1.88900
O1246       O  0.99271598  0.85143740  0.79943665    -0.71400
O1247       O  0.12225292  0.80378782  0.81184452    -0.50700
O1248       O  0.10757502  0.84893088  0.74285319    -0.95400
O1249       O  0.03448377  0.83984083  0.67813181    -0.52600
O1250       O  0.03357930  0.86370826  0.74931614    -0.71900
C1251       C  0.01247170  0.87197509  0.77470131     1.00400
O1252       O  0.44123110  0.79721252  0.86580381    -0.60700
O1253       O  0.41019183  0.69947854  0.72607781    -0.55500
O1254       O  0.41690980  0.78828976  0.80336571    -0.92200
O1255       O  0.40631660  0.76406591  0.75274872    -0.90700
O1256       O  0.42586037  0.65317621  0.79593073    -0.91000
O1257       O  0.43111597  0.67915124  0.85813436    -0.89800
C1258       C  0.39636612  0.77873071  0.77996350     1.19300
H1259       H  0.47736687  0.67764718  0.73650071     0.35200
H1260       H  0.00234758  0.73796205  0.85679286     0.46100
H1261       H  0.47501454  0.81471286  0.74252931     0.39600
H1262       H  0.10553891  0.77312447  0.73872741     0.36100
H1263       H  0.98380209  0.64094015  0.86367865     0.27800
H1264       H  0.13602104  0.79578356  0.83004513     0.33800
H1265       H  0.10728105  0.87142809  0.73134489     0.39700
H1266       H  0.42781668  0.63024878  0.80502940     0.34200
H1267       H  0.39533507  0.70916300  0.70996203     0.33000
H1268       H  0.42142869  0.77054831  0.67904105     0.34700
H1269       H  0.04648408  0.86379630  0.67717503     0.33700
H1270       H  0.42692165  0.70188343  0.86347320     0.37700
H1271       H  0.43031177  0.81695376  0.85959474     0.30400
H1272       H  0.10362932  0.68694532  0.68083696     0.34600
H1273       H  0.10759546  0.84403060  0.67373737     0.37500
H1274       H  0.42071605  0.68261033  0.71256586     0.30100
H1275       H  0.42062205  0.77774405  0.86919749     0.43000
H1276       H  0.06326474  0.71326672  0.87288782     0.33000
H1277       H  0.02367898  0.66154935  0.85423021     0.40700
H1278       H  0.00807884  0.84005625  0.68411971     0.32500
H1279       H  0.13831768  0.80391294  0.78931608     0.32600
H1280       H  0.11455913  0.72631101  0.67303521     0.32800
C1281       C  0.07715810  0.96870114  0.73814851    -0.11500
C1282       C  0.10974189  0.97068099  0.73729801    -0.13000
C1283       C  0.01971358  0.93657023  0.76291314    -0.11500
C1284       C  0.01178508  0.90727981  0.77395578    -0.13000
C1285       C  0.02811015  0.96280547  0.70451421    -0.11500
C1286       C  0.02322111  0.95918585  0.67422666    -0.13000
C1287       C  0.26736490  0.57021770  0.00171589    -0.11500
C1288       C  0.27519671  0.59917464  0.00828071    -0.13000
C1289       C  0.26983414  0.54433384  0.94833513    -0.11500
C1290       C  0.27612148  0.54505893  0.91684386    -0.13000
C1291       C  0.18547144  0.51479234  0.99521428    -0.11500
C1292       C  0.21779569  0.52617931  0.99141300    -0.13000
C1293       C  0.49649741  0.70970473  0.58836609    -0.11500
C1294       C  0.50022720  0.70897194  0.61930622    -0.13000
C1295       C  0.42403645  0.72692856  0.54652043    -0.11500
C1296       C  0.45424982  0.72169145  0.54965540    -0.13000
C1297       C  0.49544757  0.68475776  0.53289094    -0.11500
C1298       C  0.49689067  0.65692722  0.52313702    -0.13000
C1299       C  0.26594561  0.99781235  0.53536316    -0.14600
C1300       C  0.27089178  0.52177185  0.52038910    -0.29800
H1301       H  0.24454257  0.00644922  0.55226749     0.14400
H1302       H  0.29666903  0.50190404  0.98470489     0.15000
C1303       C  0.27168388  0.96378548  0.58771320    -0.11500
C1304       C  0.26413598  0.96092520  0.61917562    -0.13000
C1305       C  0.28027986  0.94056832  0.53340066    -0.11500
C1306       C  0.27461279  0.91148079  0.52678884    -0.13000
C1307       C  0.32467002  0.98753018  0.54737461    -0.11500
C1308       C  0.35648071  0.00070722  0.54444197    -0.13000
C1309       C  0.25300331  0.65025797  0.76772390    -0.11500
C1310       C  0.24870890  0.67774383  0.75765319    -0.13000
C1311       C  0.20443592  0.71323134  0.75460997    -0.11500
C1312       C  0.17247374  0.71563292  0.75858333    -0.13000
C1313       C  0.25731710  0.72176459  0.71036301    -0.11500
C1314       C  0.26570989  0.73086211  0.67928695    -0.13000
C1315       C  0.02038567  0.74730292  0.53507775    -0.14600
C1316       C  0.01966014  0.76218762  0.50276945    -0.29800
H1317       H  0.04045333  0.75943383  0.55072704     0.14400
H1318       H  0.99923062  0.74943351  0.98804531     0.15000
C1319       C  0.11488399  0.78124561  0.99187533    -0.11500
C1320       C  0.08468032  0.78646027  0.98836977    -0.13000
C1321       C  0.03687918  0.79882597  0.91934469    -0.11500
C1322       C  0.04166697  0.79839097  0.95003682    -0.13000
C1323       C  0.04028839  0.85217809  0.51560984    -0.11500
C1324       C  0.04374768  0.82373626  0.00521537    -0.13000
C1325       C  0.02866474  0.00043503  0.75347040    -0.14600
C1326       C  0.00715948  0.50317963  0.78380680    -0.29800
H1327       H  0.04098692  0.02324457  0.73675763     0.14400
H1328       H  0.49452758  0.47898580  0.80005102     0.15000
C1329       C  0.02475260  0.59747743  0.76625550    -0.11500
C1330       C  0.51822883  0.56621100  0.77620470    -0.13000
C1331       C  0.42777717  0.53443011  0.79553884    -0.11500
C1332       C  0.45974079  0.53490652  0.79694412    -0.13000
C1333       C  0.51051689  0.53942532  0.86401054    -0.11500
C1334       C  0.50613380  0.53712683  0.83347835    -0.13000
C1335       C  0.26699214  0.76767106  0.76897735    -0.14600
C1336       C  0.26527002  0.73439500  0.77110412    -0.29800
H1337       H  0.25238956  0.77875307  0.74984562     0.14400
H1338       H  0.28001054  0.72345714  0.79023103     0.15000
C1339       C  0.27908402  0.85212513  0.77532491    -0.11500
C1340       C  0.28359927  0.82424212  0.78357426    -0.13000
C1341       C  0.35913665  0.78447163  0.78443498    -0.11500
C1342       C  0.32738195  0.78775240  0.78740190    -0.13000
C1343       C  0.27322740  0.78000908  0.82983764    -0.11500
C1344       C  0.26434464  0.77196640  0.86094985    -0.13000
C1345       C  0.78870928  0.29124988  0.29002494    -0.00700
C1346       C  0.99898469  0.03702553  0.29733320    -0.00700
C1347       C  0.54587045  0.29338429  0.48538855    -0.00700
C1348       C  0.74386977  0.21184251  0.24791684    -0.00700
C1349       C  0.78656599  0.47007475  0.04831764    -0.00700
C1350       C  0.99331274  0.21633895  0.04976768    -0.00700
C1351       C  0.75830846  0.04366015  0.49175106    -0.00700
C1352       C  0.53633910  0.46600184  0.23952715    -0.00700
Zr1353     Zr  0.97650224  0.04284121  0.48934904     2.17500
O1354       O  0.93737039  0.06910290  0.45440374    -0.49500
O1355       O  0.98313779  0.10231951  0.00298874    -0.72700
O1356       O  0.91068595  0.02320210  0.01516273    -0.79500
O1357       O  0.54920322  0.03491629  0.40558784    -0.81300
O1358       O  0.90973376  0.49824722  0.06881112    -0.76900
O1359       O  0.98971859  0.04389868  0.42437494    -0.88500
O1360       O  0.02661491  0.11417015  0.03899759    -0.74500
O1361       O  0.98431655  0.04343714  0.05070965    -0.84000
O1362       O  0.54235225  0.06271622  0.48582122    -0.83700
O1363       O  0.95956978  0.48543300  0.01571160    -0.70400
O1364       O  0.50702189  0.50212710  0.46093573    -0.82600
Zr1365     Zr  0.56249696  0.46531379  0.04842676     2.26400
Zr1366     Zr  0.97038928  0.48873631  0.07575334     2.06300
Zr1367     Zr  0.57335321  0.02156856  0.45928199     2.10000
Zr1368     Zr  0.54914131  0.06332461  0.04742744     1.78800
O1369       O  0.59648674  0.49106852  0.41475415    -0.91400
O1370       O  0.53203939  0.08033278  0.10610238    -0.39200
O1371       O  0.58017566  0.02294838  0.02120044    -0.75800
O1372       O  0.53127072  0.00769271  0.07513054    -0.94500
O1373       O  0.49884511  0.44580326  0.04784160    -0.87800
O1374       O  0.55347338  0.46475809  0.48798554    -0.90600
C1375       C  0.00271930  0.12249500  0.02111197     1.03100
C1376       C  0.51825463  0.04087314  0.39876711     1.16100
C1377       C  0.89217981  0.00571545  0.04287869     1.06800
O1378       O  0.94431147  0.01566669  0.12526662    -0.92800
O1379       O  0.48849384  0.46735907  0.12894665    -0.88500
O1380       O  0.54566389  0.45646699  0.11348559    -0.81700
C1381       C  0.51829245  0.45924006  0.13645713     1.13500
O1382       O  0.94238938  0.43714175  0.44998850    -0.94800
Zr1383     Zr  0.48985933  0.44574610  0.48684021     1.88900
O1384       O  0.55561702  0.40568959  0.03362163    -0.71400
O1385       O  0.92949623  0.43538501  0.09600746    -0.50700
O1386       O  0.93641946  0.40398344  0.01441770    -0.95400
O1387       O  0.51309434  0.43068606  0.42886340    -0.52600
O1388       O  0.51122045  0.39417363  0.99852859    -0.71900
C1389       C  0.53552190  0.38570751  0.01577386     1.00800
O1390       O  0.60897084  0.94339520  0.07608208    -0.60700
O1391       O  0.61317006  0.07417045  0.43417327    -0.55500
O1392       O  0.62732834  0.48911997  0.02743454    -0.92200
O1393       O  0.63449519  0.02040411  0.47252406    -0.90700
O1394       O  0.60191482  0.10379885  0.01812024    -0.91000
O1395       O  0.59874387  0.07201630  0.08324949    -0.89800
C1396       C  0.64763190  0.00932726  0.49920528     1.19300
H1397       H  0.55010656  0.08467408  0.47303829     0.35200
H1398       H  0.53663631  0.01201455  0.09850667     0.46100
H1399       H  0.56825083  0.45036323  0.47628647     0.39600
H1400       H  0.93482812  0.47509876  0.01363220     0.36100
H1401       H  0.54384973  0.10433093  0.10530873     0.27800
H1402       H  0.91503473  0.43997797  0.11795121     0.33800
H1403       H  0.94308451  0.39431965  0.03648727     0.39700
H1404       H  0.60076538  0.12470295  0.02995603     0.34200
H1405       H  0.63094630  0.06735188  0.41600216     0.33000
H1406       H  0.61008014  0.00709116  0.39398630     0.34700
H1407       H  0.53566891  0.42202445  0.43199162     0.33700
H1408       H  0.60605911  0.04977382  0.08583829     0.37700
H1409       H  0.61542440  0.95853364  0.09456967     0.30400
H1410       H  0.92227701  0.08024077  0.47131370     0.34600
H1411       H  0.93902458  0.41316637  0.44496173     0.37500
H1412       H  0.59787666  0.08619791  0.42060807     0.30100
H1413       H  0.59596007  0.92193839  0.08918885     0.43000
H1414       H  0.93653128  0.03548745  0.11427382     0.33000
H1415       H  0.99944210  0.07989817  0.10733165     0.40700
H1416       H  0.52182451  0.45248636  0.41457420     0.32500
H1417       H  0.91174226  0.43234760  0.07885873     0.32600
H1418       H  0.91732557  0.54795471  0.44970222     0.32800
Zr1419     Zr  0.80521178  0.05447715  0.29765078     2.17500
O1420       O  0.84965547  0.10500907  0.30377346    -0.49500
O1421       O  0.79367651  0.05590258  0.36160019    -0.72700
O1422       O  0.78275141  0.10718792  0.28560410    -0.79500
O1423       O  0.87729657  0.99763175  0.29221861    -0.81300
O1424       O  0.72622394  0.09502747  0.26837193    -0.76900
O1425       O  0.87027563  0.05189599  0.29735935    -0.88500
O1426       O  0.75266659  0.00899425  0.38471515    -0.74500
O1427       O  0.74116470  0.03420883  0.31389900    -0.84000
O1428       O  0.79754446  0.99771554  0.32252526    -0.83700
O1429       O  0.77921562  0.05772398  0.24343803    -0.70400
O1430       O  0.83167017  0.02386498  0.25264599    -0.82600
Zr1431     Zr  0.73068002  0.44948902  0.24014458     2.26400
Zr1432     Zr  0.71502236  0.03631492  0.26023244     2.06300
Zr1433     Zr  0.82142429  0.46678826  0.27768517     2.10000
Zr1434     Zr  0.73336387  0.47692491  0.33809398     1.78800
O1435       O  0.87159985  0.45275685  0.23834009    -0.91400
O1436       O  0.67809050  0.99106689  0.36845244    -0.39200
O1437       O  0.75745966  0.44550639  0.29349448    -0.75800
O1438       O  0.70471650  0.47929803  0.28625005    -0.94500
O1439       O  0.73958137  0.50603159  0.21480970    -0.87800
O1440       O  0.79510342  0.46914891  0.22435626    -0.90600
C1441       C  0.77416120  0.03659893  0.38737581     1.03100
C1442       C  0.88932917  0.02838394  0.29645687     1.16100
C1443       C  0.75376485  0.11547354  0.27554892     1.06800
O1444       O  0.66413542  0.04617479  0.30179270    -0.92800
O1445       O  0.65907379  0.00734855  0.24349169    -0.88500
O1446       O  0.66613480  0.45326994  0.23647473    -0.81700
C1447       C  0.64686881  0.47663978  0.23835459     1.13500
O1448       O  0.85339706  0.07520860  0.18520565    -0.94800
Zr1449     Zr  0.80438574  0.02601992  0.19986375     1.88900
O1450       O  0.74289460  0.44725494  0.17662505    -0.71400
O1451       O  0.69903582  0.06680434  0.20941613    -0.50700
O1452       O  0.78562150  0.06696642  0.16011275    -0.95400
O1453       O  0.85868367  0.01083635  0.16756381    -0.52600
O1454       O  0.78742717  0.49206614  0.15457263    -0.71900
C1455       C  0.76467952  0.46542253  0.15151163     1.00400
O1456       O  0.69293705  0.39493005  0.23458970    -0.60700
O1457       O  0.83604200  0.43594297  0.32900836    -0.55500
O1458       O  0.75035020  0.39664946  0.25586310    -0.92200
O1459       O  0.80829203  0.40817412  0.26986383    -0.90700
O1460       O  0.75699093  0.43950872  0.37778627    -0.91000
O1461       O  0.68829585  0.42590353  0.35763978    -0.89800
C1462       C  0.77971258  0.38804424  0.26444451     1.19300
H1463       H  0.81045121  0.99632169  0.34265233     0.35200
H1464       H  0.67906146  0.47047977  0.29389817     0.46100
H1465       H  0.80555243  0.45510137  0.20795435     0.39600
H1466       H  0.78375526  0.08022452  0.23199526     0.36100
H1467       H  0.67667327  0.48032717  0.39417093     0.27800
H1468       H  0.68094714  0.08000786  0.21936185     0.33800
H1469       H  0.79731689  0.06362561  0.13632910     0.39700
H1470       H  0.74298495  0.44047233  0.40121773     0.34200
H1471       H  0.85606130  0.42461170  0.31959292     0.33000
H1472       H  0.88348866  0.43851107  0.25339984     0.34700
H1473       H  0.85953469  0.02025868  0.14298739     0.33700
H1474       H  0.68572025  0.41394967  0.33607820     0.37700
H1475       H  0.67267683  0.39185446  0.25438879     0.30400
H1476       H  0.83714203  0.11783647  0.32105892     0.34600
H1477       H  0.85849992  0.07808650  0.15915633     0.37500
H1478       H  0.84787199  0.45327309  0.34316847     0.30100
H1479       H  0.68132029  0.39781446  0.21309736     0.43000
H1480       H  0.67559299  0.05931517  0.31976228     0.33000
H1481       H  0.68306194  0.01593036  0.36818863     0.40700
H1482       H  0.86303577  0.49266790  0.17869909     0.32500
H1483       H  0.72119090  0.08382508  0.20043082     0.32600
H1484       H  0.85301334  0.11883484  0.28102662     0.32800
Zr1485     Zr  0.79515667  0.21168124  0.05883320     2.17500
O1486       O  0.80110840  0.16808887  0.10347592    -0.49500
O1487       O  0.86131156  0.21512668  0.05584667    -0.72700
O1488       O  0.78616890  0.15506475  0.03828591    -0.79500
O1489       O  0.77022332  0.26905552  0.13089780    -0.81300
O1490       O  0.77604135  0.15942485  0.48091232    -0.76900
O1491       O  0.78068273  0.21636592  0.12172715    -0.88500
O1492       O  0.89148066  0.25976125  0.01849657    -0.74500
O1493       O  0.82116098  0.22773688  0.99911147    -0.84000
O1494       O  0.82092807  0.27031486  0.05626826    -0.83700
O1495       O  0.74418525  0.19990144  0.02591596    -0.70400
O1496       O  0.74559694  0.23985902  0.07722191    -0.82600
Zr1497     Zr  0.74551101  0.30276279  0.47877505     2.26400
Zr1498     Zr  0.77061318  0.21710322  0.46608555     2.06300
Zr1499     Zr  0.77115944  0.29854189  0.07312802     2.10000
Zr1500     Zr  0.84565750  0.28656309  0.99625473     1.78800
O1501       O  0.72183529  0.31560109  0.11110255    -0.91400
O1502       O  0.88431726  0.27630357  0.44643489    -0.39200
O1503       O  0.79630934  0.31460678  0.01297614    -0.75800
O1504       O  0.79679146  0.27604146  0.46166227    -0.94500
O1505       O  0.71996774  0.24434654  0.48235254    -0.87800
O1506       O  0.72139050  0.28820290  0.03907787    -0.90600
C1507       C  0.89057062  0.23415628  0.03988871     1.03100
C1508       C  0.77336416  0.23916500  0.14178151     1.16100
C1509       C  0.78034396  0.14275615  0.50902837     1.06800
O1510       O  0.82115260  0.20572800  0.42514436    -0.92800
O1511       O  0.76511621  0.24131837  0.40820184    -0.88500
O1512       O  0.75331213  0.29382027  0.41571738    -0.81700
C1513       C  0.75991502  0.27012405  0.39647581     1.13500
O1514       O  0.67312836  0.18078778  0.08573250    -0.94800
Zr1515     Zr  0.69616997  0.22952649  0.04322915     1.88900
O1516       O  0.67927423  0.29904554  0.48018613    -0.71400
O1517       O  0.72330035  0.18051191  0.44089683    -0.50700
O1518       O  0.65818995  0.18394352  0.51552394    -0.95400
O1519       O  0.65739306  0.24310241  0.09425216    -0.52600
O1520       O  0.64916257  0.25379194  0.51676629    -0.71900
C1521       C  0.64999862  0.27925828  0.49520187     1.00400
O1522       O  0.74486700  0.35320923  0.44072957    -0.60700
O1523       O  0.81791961  0.33355250  0.10059818    -0.55500
O1524       O  0.76171411  0.36016542  0.99636741    -0.92200
O1525       O  0.77337142  0.35724933  0.05321972    -0.90700
O1526       O  0.88159364  0.33106228  0.02414182    -0.91000
O1527       O  0.86959285  0.33712099  0.45871540    -0.89800
C1528       C  0.76988717  0.37361155  0.02447057     1.19300
H1529       H  0.83940360  0.27448503  0.07168220     0.35200
H1530       H  0.80875608  0.28389237  0.43815808     0.46100
H1531       H  0.70317008  0.30147548  0.04613991     0.39600
H1532       H  0.73216282  0.17659077  0.02896565     0.36100
H1533       H  0.90941914  0.28567891  0.45097202     0.27800
H1534       H  0.73660508  0.16606367  0.42625318     0.33800
H1535       H  0.63244674  0.18606666  0.52266154     0.39700
H1536       H  0.90740436  0.32956497  0.01635005     0.34200
H1537       H  0.80417843  0.34231163  0.12058641     0.33000
H1538       H  0.73431889  0.33197972  0.12584407     0.34700
H1539       H  0.63199637  0.23602218  0.08924546     0.33700
H1540       H  0.84794253  0.34611406  0.45293595     0.37700
H1541       H  0.76773509  0.35686640  0.42383941     0.30400
H1542       H  0.82067618  0.15680045  0.09292036     0.34600
H1543       H  0.64614600  0.17668629  0.08690585     0.37500
H1544       H  0.83118977  0.31768760  0.11183408     0.30100
H1545       H  0.72492635  0.34690078  0.42636332     0.43000
H1546       H  0.83748435  0.19677539  0.44017558     0.33000
H1547       H  0.88302646  0.25162340  0.44820219     0.40700
H1548       H  0.66119994  0.26799082  0.09279683     0.32500
H1549       H  0.70948415  0.16509935  0.46098146     0.32600
H1550       H  0.77835142  0.15092377  0.10557535     0.32800
Zr1551     Zr  0.55191902  0.21330835  0.22642930     2.17500
O1552       O  0.59268699  0.20798346  0.17318783    -0.49500
O1553       O  0.54199231  0.15229468  0.23963754    -0.72700
O1554       O  0.61485741  0.21171203  0.23795048    -0.79500
O1555       O  0.97757362  0.22863357  0.17036955    -0.81300
O1556       O  0.62524040  0.23628398  0.28846649    -0.76900
O1557       O  0.52934349  0.20671813  0.16929953    -0.88500
O1558       O  0.50160050  0.13960648  0.28999761    -0.74500
O1559       O  0.54451888  0.20408711  0.28900127    -0.84000
O1560       O  0.98820425  0.20012686  0.24503537    -0.83700
O1561       O  0.57880584  0.26596188  0.24670308    -0.70400
O1562       O  0.52537221  0.26017120  0.20811393    -0.82600
Zr1563     Zr  0.98144270  0.29044598  0.31224472     2.26400
Zr1564     Zr  0.57008592  0.25651174  0.30975422     2.06300
Zr1565     Zr  0.96283533  0.24785564  0.22797388     2.10000
Zr1566     Zr  0.98019762  0.19128938  0.30747071     1.78800
O1567       O  0.94747369  0.28628154  0.18331479    -0.91400
O1568       O  0.49780185  0.16414949  0.36095110    -0.39200
O1569       O  0.95385541  0.23853504  0.29084968    -0.75800
O1570       O  0.50583701  0.24116953  0.33017505    -0.94500
O1571       O  0.54429980  0.30381822  0.29212385    -0.87800
O1572       O  0.98900472  0.29961746  0.24950553    -0.90600
C1573       C  0.52306541  0.13163213  0.26464379     1.03100
C1574       C  0.00382977  0.21642020  0.15463077     1.16100
C1575       C  0.63520832  0.22124192  0.26153426     1.06800
O1576       O  0.58422701  0.21967665  0.35663181    -0.92800
O1577       O  0.55794499  0.27941124  0.36592482    -0.88500
O1578       O  0.50430980  0.29880878  0.36782813    -0.81700
C1579       C  0.53250782  0.29283054  0.38143834     1.13500
O1580       O  0.59830427  0.32157539  0.17842809    -0.94800
Zr1581     Zr  0.55099764  0.31200856  0.22959558     1.88900
O1582       O  0.49073608  0.35008189  0.29848377    -0.71400
O1583       O  0.62107398  0.30247945  0.31238470    -0.50700
O1584       O  0.60685582  0.34709732  0.24259917    -0.95400
O1585       O  0.53274639  0.33724282  0.17686625    -0.52600
O1586       O  0.53212967  0.36248106  0.24872815    -0.71900
C1587       C  0.51066644  0.37069874  0.27388556     1.00400
O1588       O  0.94159393  0.29704499  0.36563483    -0.60700
O1589       O  0.91122832  0.20287929  0.22361421    -0.55500
O1590       O  0.91762495  0.28992266  0.30216565    -0.92200
O1591       O  0.90724158  0.26615689  0.25122104    -0.90700
O1592       O  0.92690188  0.15395637  0.29243464    -0.91000
O1593       O  0.92848936  0.18215392  0.35434509    -0.89800
C1594       C  0.89714295  0.28045193  0.27864253     1.19300
H1595       H  0.97761734  0.18033850  0.23448142     0.35200
H1596       H  0.50149854  0.23698158  0.35551836     0.46100
H1597       H  0.97660741  0.31725239  0.24209025     0.39600
H1598       H  0.60447730  0.27208751  0.23759081     0.36100
H1599       H  0.48367743  0.14080950  0.36386299     0.27800
H1600       H  0.63504262  0.29389689  0.33008264     0.33800
H1601       H  0.60533263  0.37033908  0.23414758     0.39700
H1602       H  0.92747605  0.13170635  0.30435562     0.34200
H1603       H  0.89524757  0.21350203  0.20952174     0.33000
H1604       H  0.92657896  0.27299095  0.17382063     0.34700
H1605       H  0.50980513  0.34502286  0.18510517     0.33700
H1606       H  0.92580594  0.20507416  0.36046700     0.37700
H1607       H  0.93077839  0.31701415  0.36009731     0.30400
H1608       H  0.60290203  0.18753951  0.17814705     0.34600
H1609       H  0.60483990  0.34633229  0.17317451     0.37500
H1610       H  0.92119767  0.18719210  0.20796203     0.30100
H1611       H  0.92097196  0.27763416  0.36813096     0.43000
H1612       H  0.58632858  0.19834864  0.34593099     0.33000
H1613       H  0.52343859  0.16155723  0.35413078     0.40700
H1614       H  0.52496283  0.31801124  0.16305927     0.32500
H1615       H  0.63707529  0.30359307  0.28963972     0.32600
H1616       H  0.61361027  0.22701192  0.17182228     0.32800
C1617       C  0.57589019  0.46691727  0.23731884    -0.11500
C1618       C  0.60850592  0.46870247  0.23598286    -0.13000
C1619       C  0.51801831  0.43536203  0.26203088    -0.11500
C1620       C  0.50986498  0.40603728  0.27302936    -0.13000
C1621       C  0.52714822  0.46150577  0.20360458    -0.11500
C1622       C  0.52272835  0.45776798  0.17325252    -0.13000
C1623       C  0.76719453  0.07747376  0.50370355    -0.11500
C1624       C  0.77501574  0.10691390  0.50833842    -0.13000
C1625       C  0.77035244  0.04652327  0.45387684    -0.11500
C1626       C  0.77570865  0.04564697  0.42247660    -0.13000
C1627       C  0.68614657  0.02009066  0.49934954    -0.11500
C1628       C  0.71840382  0.03153563  0.49724120    -0.13000
C1629       C  0.99842867  0.21106540  0.08712109    -0.11500
C1630       C  0.00213765  0.21109488  0.11801769    -0.13000
C1631       C  0.92526168  0.22652535  0.04608324    -0.11500
C1632       C  0.95576378  0.22195898  0.04876754    -0.13000
C1633       C  0.99693045  0.18519216  0.03223414    -0.11500
C1634       C  0.99788869  0.15705355  0.02322366    -0.13000
C1635       C  0.76626651  0.49593748  0.03475322    -0.14600
C1636       C  0.77791812  0.01963835  0.00947570    -0.29800
H1637       H  0.74404140  0.50287242  0.05211971     0.14400
H1638       H  0.80826741  0.02909029  0.50736218     0.15000
C1639       C  0.77234340  0.45999856  0.08513624    -0.11500
C1640       C  0.76437697  0.45676190  0.11645768    -0.13000
C1641       C  0.78186151  0.43898646  0.03014596    -0.11500
C1642       C  0.77631884  0.40973790  0.02399628    -0.13000
C1643       C  0.82536348  0.48574851  0.04628340    -0.11500
C1644       C  0.85683552  0.49955657  0.04479316    -0.13000
C1645       C  0.75253783  0.15011817  0.26831904    -0.11500
C1646       C  0.74843110  0.17766989  0.25814492    -0.13000
C1647       C  0.70447454  0.21342875  0.25353164    -0.11500
C1648       C  0.67248834  0.21583356  0.25704854    -0.13000
C1649       C  0.75789966  0.22098880  0.21022639    -0.11500
C1650       C  0.76650866  0.22975756  0.17915461    -0.13000
C1651       C  0.51996484  0.24639803  0.03369611    -0.14600
C1652       C  0.52000601  0.26123337  0.00120912    -0.29800
H1653       H  0.54005663  0.25818062  0.04951222     0.14400
H1654       H  0.49913219  0.24916024  0.48611542     0.15000
C1655       C  0.61506072  0.28582576  0.48809982    -0.11500
C1656       C  0.58403141  0.28904086  0.48558337    -0.13000
C1657       C  0.53535666  0.29938150  0.41760351    -0.11500
C1658       C  0.53992363  0.29925228  0.44830941    -0.13000
C1659       C  0.54050635  0.35132338  0.01304187    -0.11500
C1660       C  0.54140611  0.32387257  0.50379097    -0.13000
C1661       C  0.52787327  0.49940202  0.25233058    -0.14600
C1662       C  0.50748249  0.00259560  0.28226443    -0.29800
H1663       H  0.54019964  0.52205671  0.23537459     0.14400
H1664       H  0.99449200  0.98117304  0.30097675     0.15000
C1665       C  0.52494569  0.09651735  0.26519041    -0.11500
C1666       C  0.01798406  0.06823288  0.27612910    -0.13000
C1667       C  0.92753074  0.03622536  0.29892623    -0.11500
C1668       C  0.95981379  0.03701563  0.29859693    -0.13000
C1669       C  0.01112289  0.04167778  0.36441285    -0.11500
C1670       C  0.00708574  0.03964248  0.33377641    -0.13000
C1671       C  0.76761638  0.26826536  0.26713974    -0.14600
C1672       C  0.76506826  0.23486702  0.27070492    -0.29800
H1673       H  0.75373895  0.27892515  0.24709910     0.14400
H1674       H  0.77910673  0.22425588  0.29064236     0.15000
C1675       C  0.78080637  0.35333708  0.27069662    -0.11500
C1676       C  0.78498311  0.32550091  0.27946958    -0.13000
C1677       C  0.85978924  0.28582161  0.28315155    -0.11500
C1678       C  0.82797053  0.28883947  0.28569748    -0.13000
C1679       C  0.77356353  0.28329977  0.32747921    -0.11500
C1680       C  0.76470493  0.27714280  0.35886865    -0.13000
C1681       C  0.78843090  0.29107877  0.79005660    -0.00700
C1682       C  0.99907011  0.03604179  0.79798964    -0.00700
C1683       C  0.54697644  0.29314270  0.98521715    -0.00700
C1684       C  0.74348104  0.21099576  0.74940406    -0.00700
C1685       C  0.78321370  0.46959811  0.54867534    -0.00700
C1686       C  0.99135843  0.21558984  0.55172909    -0.00700
C1687       C  0.75727780  0.04329502  0.99202318    -0.00700
C1688       C  0.53596657  0.46543705  0.73930570    -0.00700
Zr1689     Zr  0.97579081  0.04199369  0.99024555     2.17500
O1690       O  0.93537198  0.06687539  0.95565869    -0.49500
O1691       O  0.98295901  0.10275120  0.50298091    -0.72700
O1692       O  0.91144224  0.02426239  0.51442792    -0.79500
O1693       O  0.54889560  0.03330260  0.90628584    -0.81300
O1694       O  0.90629591  0.49579479  0.56924137    -0.76900
O1695       O  0.98921545  0.04392222  0.92524776    -0.88500
O1696       O  0.02859906  0.11525815  0.53648666    -0.74500
O1697       O  0.98680965  0.04522753  0.54931262    -0.84000
O1698       O  0.54075639  0.06279109  0.98700471    -0.83700
O1699       O  0.95735523  0.48409447  0.51574664    -0.70400
O1700       O  0.50844731  0.50204702  0.96135088    -0.82600
Zr1701     Zr  0.56089386  0.46583304  0.54891265     2.26400
Zr1702     Zr  0.96666917  0.48619102  0.57630403     2.06300
Zr1703     Zr  0.57285711  0.02227572  0.96060863     2.10000
Zr1704     Zr  0.55213612  0.06370393  0.54584400     1.78800
O1705       O  0.59916787  0.49113122  0.91424759    -0.91400
O1706       O  0.53566876  0.08107411  0.60450503    -0.39200
O1707       O  0.58188627  0.02260550  0.51955303    -0.75800
O1708       O  0.53389160  0.00832209  0.57421654    -0.94500
O1709       O  0.49736954  0.44605810  0.54775494    -0.87800
O1710       O  0.55447232  0.46430911  0.98758151    -0.90600
C1711       C  0.00327170  0.12312612  0.52026711     1.03100
C1712       C  0.51838737  0.03989569  0.89892982     1.16100
C1713       C  0.89330470  0.00754270  0.54276080     1.06800
O1714       O  0.94610694  0.01822749  0.62480806    -0.92800
O1715       O  0.48692183  0.46700994  0.62897379    -0.88500
O1716       O  0.54417793  0.45623717  0.61370888    -0.81700
C1717       C  0.51670982  0.45881552  0.63657519     1.13500
O1718       O  0.94161769  0.43705068  0.95154649    -0.94800
Zr1719     Zr  0.49059248  0.44571381  0.98709842     1.88900
O1720       O  0.55479067  0.40619116  0.53417682    -0.71400
O1721       O  0.92610368  0.43220112  0.59404534    -0.50700
O1722       O  0.93600843  0.40351381  0.51428874    -0.95400
O1723       O  0.51338847  0.43111274  0.92876892    -0.52600
O1724       O  0.51090902  0.39451109  0.49858290    -0.71900
C1725       C  0.53503684  0.38613734  0.51610510     1.00800
O1726       O  0.61030103  0.94298871  0.57462355    -0.60700
O1727       O  0.61017317  0.07615707  0.93578761    -0.55500
O1728       O  0.62561746  0.49029155  0.52831936    -0.92200
O1729       O  0.63356038  0.02143993  0.97493148    -0.90700
O1730       O  0.60510131  0.10283212  0.51497093    -0.91000
O1731       O  0.60273839  0.07247882  0.58043425    -0.89800
C1732       C  0.64646983  0.01010507  0.00161437     1.19300
H1733       H  0.54833361  0.08486070  0.97457015     0.35200
H1734       H  0.53973191  0.01248191  0.59749335     0.46100
H1735       H  0.56891132  0.44970272  0.97574069     0.39600
H1736       H  0.93270838  0.47388741  0.51315242     0.36100
H1737       H  0.54477187  0.10571366  0.60267404     0.27800
H1738       H  0.91036422  0.43626512  0.61543146     0.33800
H1739       H  0.94013498  0.38203658  0.50499945     0.39700
H1740       H  0.60425388  0.12424201  0.52587960     0.34200
H1741       H  0.62926127  0.07016120  0.91838210     0.33000
H1742       H  0.61202417  0.00899966  0.89602453     0.34700
H1743       H  0.53448671  0.42020285  0.93208026     0.33700
H1744       H  0.61355721  0.05196890  0.57839740     0.37700
H1745       H  0.61672059  0.95786661  0.59333229     0.30400
H1746       H  0.92101797  0.07882783  0.97237545     0.34600
H1747       H  0.93973205  0.41358894  0.94496450     0.37500
H1748       H  0.59452866  0.08681686  0.92133289     0.30100
H1749       H  0.59730421  0.92138957  0.58744626     0.43000
H1750       H  0.94062586  0.03908991  0.61361191     0.33000
H1751       H  0.00658127  0.08100051  0.60730656     0.40700
H1752       H  0.52438956  0.45297404  0.91535488     0.32500
H1753       H  0.90949468  0.42929153  0.57585907     0.32600
H1754       H  0.92071395  0.54988416  0.94807838     0.32800
Zr1755     Zr  0.80478648  0.05315468  0.79800535     2.17500
O1756       O  0.84982466  0.10287107  0.80522182    -0.49500
O1757       O  0.79200253  0.05472726  0.86182251    -0.72700
O1758       O  0.78315113  0.10630261  0.78636576    -0.79500
O1759       O  0.87768910  0.99617935  0.78901130    -0.81300
O1760       O  0.72631461  0.09449351  0.76974171    -0.76900
O1761       O  0.86977197  0.04960861  0.79804502    -0.88500
O1762       O  0.75112729  0.00761897  0.88461150    -0.74500
O1763       O  0.74063031  0.03299508  0.81396932    -0.84000
O1764       O  0.79678908  0.99627519  0.82228422    -0.83700
O1765       O  0.77898348  0.05715928  0.74378302    -0.70400
O1766       O  0.83090266  0.02299054  0.75246478    -0.82600
Zr1767     Zr  0.72992297  0.44888916  0.74023352     2.26400
Zr1768     Zr  0.71475769  0.03604292  0.76019971     2.06300
Zr1769     Zr  0.82118441  0.46614690  0.77678967     2.10000
Zr1770     Zr  0.73355947  0.47682560  0.83755217     1.78800
O1771       O  0.87100935  0.45523890  0.73469520    -0.91400
O1772       O  0.67661895  0.98771582  0.86867682    -0.39200
O1773       O  0.75727362  0.44503511  0.79322098    -0.75800
O1774       O  0.70462822  0.47928957  0.78597263    -0.94500
O1775       O  0.73918112  0.50537269  0.71469784    -0.87800
O1776       O  0.79435797  0.46809200  0.72376764    -0.90600
C1777       C  0.77231766  0.03536297  0.88745577     1.03100
C1778       C  0.88933333  0.02651321  0.79509989     1.16100
C1779       C  0.75407069  0.11478510  0.77676719     1.06800
O1780       O  0.66346647  0.04865139  0.79926761    -0.92800
O1781       O  0.65863728  0.00718952  0.74350842    -0.88500
O1782       O  0.66565749  0.45334852  0.73628685    -0.81700
C1783       C  0.64668072  0.47693088  0.73777757     1.13500
O1784       O  0.85011282  0.07632510  0.68286467    -0.94800
Zr1785     Zr  0.80363076  0.02564625  0.69976450     1.88900
O1786       O  0.74096656  0.44609019  0.67690929    -0.71400
O1787       O  0.70229990  0.06716316  0.70808574    -0.50700
O1788       O  0.78389334  0.06526142  0.65923046    -0.95400
O1789       O  0.86074581  0.01325436  0.67039222    -0.52600
O1790       O  0.78442561  0.49151036  0.65418575    -0.71900
C1791       C  0.76186295  0.46461439  0.65151861     1.00400
O1792       O  0.69042348  0.39461690  0.73700682    -0.60700
O1793       O  0.83697037  0.43344450  0.82621299    -0.55500
O1794       O  0.74978251  0.39609492  0.75556977    -0.92200
O1795       O  0.80773311  0.40748566  0.76965421    -0.90700
O1796       O  0.75633044  0.43882125  0.87734368    -0.91000
O1797       O  0.68756188  0.42631354  0.85651739    -0.89800
C1798       C  0.77910380  0.38745462  0.76419474     1.19300
H1799       H  0.80956501  0.99480703  0.84249308     0.35200
H1800       H  0.67895222  0.47062304  0.79368299     0.46100
H1801       H  0.80443287  0.45384443  0.70736690     0.39600
H1802       H  0.78368507  0.07975499  0.73256065     0.36100
H1803       H  0.67691946  0.47984610  0.89366681     0.27800
H1804       H  0.68305547  0.07962664  0.71696756     0.33800
H1805       H  0.79453189  0.06083496  0.63542868     0.39700
H1806       H  0.74234869  0.43996656  0.90074390     0.34200
H1807       H  0.86021779  0.42666902  0.81700976     0.33000
H1808       H  0.88452454  0.44155188  0.74860744     0.34700
H1809       H  0.85864383  0.01527263  0.64491870     0.33700
H1810       H  0.68675294  0.41341846  0.83543105     0.37700
H1811       H  0.67031080  0.39264802  0.75682128     0.30400
H1812       H  0.83734283  0.11565233  0.82257847     0.34600
H1813       H  0.85643438  0.07713664  0.65695867     0.37500
H1814       H  0.84387356  0.44981300  0.84346749     0.30100
H1815       H  0.67877880  0.39695015  0.71544573     0.43000
H1816       H  0.67328902  0.05370926  0.82152412     0.33000
H1817       H  0.68142999  0.01239814  0.87014400     0.40700
H1818       H  0.85855135  0.48871850  0.67275478     0.32500
H1819       H  0.72440415  0.08479315  0.70102197     0.32600
H1820       H  0.85364052  0.11700771  0.78263269     0.32800
Zr1821     Zr  0.79324731  0.21158333  0.55976920     2.17500
O1822       O  0.79502287  0.16701051  0.60493870    -0.49500
O1823       O  0.85925631  0.21523518  0.55823436    -0.72700
O1824       O  0.78637723  0.15545770  0.53805475    -0.79500
O1825       O  0.76593356  0.26780123  0.63192324    -0.81300
O1826       O  0.77742630  0.15932472  0.98071046    -0.76900
O1827       O  0.78036371  0.21644152  0.62281316    -0.88500
O1828       O  0.88978223  0.25918778  0.52017185    -0.74500
O1829       O  0.82006375  0.22790372  0.50036694    -0.84000
O1830       O  0.81849125  0.27021460  0.55778749    -0.83700
O1831       O  0.74309225  0.19982030  0.52582980    -0.70400
O1832       O  0.74305482  0.23910525  0.57750191    -0.82600
Zr1833     Zr  0.74670234  0.30292958  0.97874489     2.26400
Zr1834     Zr  0.77080861  0.21681330  0.96592647     2.06300
Zr1835     Zr  0.76808214  0.29787832  0.57403716     2.10000
Zr1836     Zr  0.84421418  0.28666091  0.49804336     1.78800
O1837       O  0.71786306  0.31385698  0.61173135    -0.91400
O1838       O  0.88455452  0.27623918  0.94386094    -0.39200
O1839       O  0.79421949  0.31419060  0.51409841    -0.75800
O1840       O  0.79743881  0.27568616  0.96091288    -0.94500
O1841       O  0.72069296  0.24452981  0.98288095    -0.87800
O1842       O  0.71916437  0.28764630  0.53889446    -0.90600
C1843       C  0.88865946  0.23387869  0.54207308     1.03100
C1844       C  0.77106207  0.23855025  0.64286889     1.16100
C1845       C  0.78078452  0.14246304  0.00907125     1.06800
O1846       O  0.81892701  0.20443450  0.92283447    -0.92800
O1847       O  0.76478206  0.24137802  0.90831542    -0.88500
O1848       O  0.75385349  0.29416836  0.91577448    -0.81700
C1849       C  0.75996602  0.27032690  0.89658724     1.13500
O1850       O  0.66926357  0.18071167  0.58504163    -0.94800
Zr1851     Zr  0.69450938  0.22893714  0.54242584     1.88900
O1852       O  0.68035279  0.29901939  0.98079159    -0.71400
O1853       O  0.72207239  0.18017503  0.94264497    -0.50700
O1854       O  0.65973012  0.18467224  0.01620027    -0.95400
O1855       O  0.65627529  0.24292219  0.59351767    -0.52600
O1856       O  0.65036798  0.25500274  0.01908330    -0.71900
C1857       C  0.65110195  0.27981860  0.99669887     1.00400
O1858       O  0.74331131  0.35287831  0.94123421    -0.60700
O1859       O  0.81394635  0.33300697  0.60245295    -0.55500
O1860       O  0.75860776  0.35971387  0.49720131    -0.92200
O1861       O  0.77016840  0.35668356  0.55410028    -0.90700
O1862       O  0.87780322  0.33066375  0.52834944    -0.91000
O1863       O  0.87025221  0.33688333  0.95649861    -0.89800
C1864       C  0.76656684  0.37307943  0.52537489     1.19300
H1865       H  0.83659955  0.27446347  0.57358257     0.35200
H1866       H  0.80918607  0.28336140  0.93729764     0.46100
H1867       H  0.70063115  0.30061866  0.54588131     0.39600
H1868       H  0.73130183  0.17643770  0.52873343     0.36100
H1869       H  0.90986539  0.28514462  0.94814496     0.27800
H1870       H  0.73494401  0.16728348  0.92570065     0.33800
H1871       H  0.63412372  0.18782705  0.02185503     0.39700
H1872       H  0.90252987  0.32515984  0.52794136     0.34200
H1873       H  0.79976994  0.34519226  0.61906471     0.33000
H1874       H  0.72963616  0.32636595  0.62993721     0.34700
H1875       H  0.64728690  0.26323011  0.58544374     0.33700
H1876       H  0.84855549  0.34656182  0.95224831     0.37700
H1877       H  0.76600110  0.35736493  0.92406019     0.30400
H1878       H  0.81483964  0.15542019  0.59560015     0.34600
H1879       H  0.64231978  0.17804473  0.58654754     0.37500
H1880       H  0.82373381  0.31720705  0.61774583     0.30100
H1881       H  0.72332609  0.34583646  0.92711989     0.43000
H1882       H  0.83673997  0.19674097  0.93695654     0.33000
H1883       H  0.88280098  0.25151076  0.94525955     0.40700
H1884       H  0.67364119  0.25101578  0.60994639     0.32500
H1885       H  0.71054076  0.16336648  0.96245996     0.32600
H1886       H  0.77210454  0.15033569  0.60542445     0.32800
Zr1887     Zr  0.55245266  0.21262448  0.72726125     2.17500
O1888       O  0.59412099  0.20759714  0.67455426    -0.49500
O1889       O  0.54226892  0.15161207  0.73944656    -0.72700
O1890       O  0.61507509  0.21086639  0.73935365    -0.79500
O1891       O  0.97632532  0.22533547  0.67214551    -0.81300
O1892       O  0.62505253  0.23575187  0.78974741    -0.76900
O1893       O  0.53108123  0.20667576  0.66964285    -0.88500
O1894       O  0.50285769  0.13911507  0.79046285    -0.74500
O1895       O  0.54514925  0.20384704  0.78993961    -0.84000
O1896       O  0.98850086  0.19785984  0.74708147    -0.83700
O1897       O  0.57901544  0.26554645  0.74710771    -0.70400
O1898       O  0.52490930  0.25866359  0.70849117    -0.82600
Zr1899     Zr  0.98046787  0.28932078  0.81206378     2.26400
Zr1900     Zr  0.57027946  0.25664551  0.81011612     2.06300
Zr1901     Zr  0.96150423  0.24448019  0.72958002     2.10000
Zr1902     Zr  0.98149513  0.19041467  0.80954463     1.78800
O1903       O  0.94391753  0.28025354  0.68390197    -0.91400
O1904       O  0.49790929  0.16217347  0.86164366    -0.39200
O1905       O  0.95333708  0.23638504  0.79251664    -0.75800
O1906       O  0.50611910  0.24071916  0.83086937    -0.94500
O1907       O  0.54418018  0.30353558  0.79185203    -0.87800
O1908       O  0.98698455  0.29730368  0.74932299    -0.90600
C1909       C  0.52379527  0.13104731  0.76472907     1.03100
C1910       C  0.00290230  0.21372515  0.65622818     1.16100
C1911       C  0.63512094  0.22042136  0.76312653     1.06800
O1912       O  0.58654066  0.22204117  0.85765777    -0.92800
O1913       O  0.55859099  0.27959135  0.86604662    -0.88500
O1914       O  0.50468989  0.29848120  0.86797052    -0.81700
C1915       C  0.53308727  0.29286217  0.88151726     1.13500
O1916       O  0.59518663  0.31623294  0.67639393    -0.94800
Zr1917     Zr  0.55042801  0.31080267  0.72923322     1.88900
O1918       O  0.49144926  0.34942002  0.79863034    -0.71400
O1919       O  0.62092941  0.30332135  0.81127756    -0.50700
O1920       O  0.60758858  0.34585657  0.73910919    -0.95400
O1921       O  0.53142372  0.33750965  0.67768991    -0.52600
O1922       O  0.53232247  0.36154323  0.74850696    -0.71900
C1923       C  0.51123740  0.36992850  0.77385682     1.00400
O1924       O  0.93950136  0.29403373  0.86541047    -0.60700
O1925       O  0.91048772  0.19830843  0.72720117    -0.55500
O1926       O  0.91735612  0.29062854  0.80125329    -0.92200
O1927       O  0.90642569  0.26418557  0.75194049    -0.90700
O1928       O  0.92749631  0.15321418  0.79563753    -0.91000
O1929       O  0.93106116  0.17979123  0.85779824    -0.89800
C1930       C  0.89672757  0.28012934  0.77823586     1.19300
H1931       H  0.97813743  0.17764591  0.73709762     0.35200
H1932       H  0.50189026  0.23671714  0.85623095     0.46100
H1933       H  0.97412359  0.31454045  0.74172512     0.39600
H1934       H  0.60469836  0.27172084  0.73802746     0.36100
H1935       H  0.48403156  0.13875612  0.86375704     0.27800
H1936       H  0.63564877  0.29509400  0.82848730     0.33800
H1937       H  0.60486724  0.36925585  0.73273864     0.39700
H1938       H  0.92896993  0.13065286  0.80620362     0.34200
H1939       H  0.89441623  0.20790115  0.71235368     0.33000
H1940       H  0.92077280  0.26731090  0.67798014     0.34700
H1941       H  0.54124476  0.36186762  0.67789626     0.33700
H1942       H  0.93239723  0.20140328  0.86877407     0.37700
H1943       H  0.92875622  0.31419911  0.86055074     0.30400
H1944       H  0.60461555  0.18736343  0.67972902     0.34600
H1945       H  0.60429030  0.34072053  0.67083999     0.37500
H1946       H  0.92082718  0.18205166  0.71259764     0.30100
H1947       H  0.91893265  0.27467223  0.86692765     0.43000
H1948       H  0.58619089  0.19962492  0.84860772     0.33000
H1949       H  0.52369963  0.15995852  0.85501512     0.40700
H1950       H  0.50458848  0.33546391  0.68326011     0.32500
H1951       H  0.63632078  0.30445801  0.78818234     0.32600
H1952       H  0.61476603  0.22686827  0.67333713     0.32800
C1953       C  0.57565125  0.46698234  0.73666605    -0.11500
C1954       C  0.60831439  0.46912935  0.73533923    -0.13000
C1955       C  0.51838119  0.43466854  0.76198335    -0.11500
C1956       C  0.51062040  0.40532403  0.77299804    -0.13000
C1957       C  0.52620610  0.46076074  0.70359294    -0.11500
C1958       C  0.52119024  0.45710666  0.67336851    -0.13000
C1959       C  0.76695961  0.07716433  0.00367555    -0.11500
C1960       C  0.77510378  0.10658084  0.00834513    -0.13000
C1961       C  0.76836509  0.04572582  0.95398079    -0.11500
C1962       C  0.77341959  0.04451183  0.92259666    -0.13000
C1963       C  0.68497769  0.02057741  0.00169774    -0.11500
C1964       C  0.71735212  0.03167729  0.99863784    -0.13000
C1965       C  0.99698443  0.20960892  0.58881457    -0.11500
C1966       C  0.00121692  0.20888153  0.61957915    -0.13000
C1967       C  0.92323144  0.22600163  0.54854585    -0.11500
C1968       C  0.95366185  0.22112330  0.55120497    -0.13000
C1969       C  0.99536076  0.18491137  0.53347413    -0.11500
C1970       C  0.99731513  0.15722558  0.52365579    -0.13000
C1971       C  0.76350209  0.49601337  0.53530638    -0.14600
C1972       C  0.77892891  0.02022739  0.50959706    -0.29800
H1973       H  0.74196599  0.50368480  0.55295220     0.14400
H1974       H  0.80727866  0.02840633  0.00716012     0.15000
C1975       C  0.76879246  0.45933687  0.58534132    -0.11500
C1976       C  0.76088834  0.45591943  0.61661926    -0.13000
C1977       C  0.77819312  0.43858173  0.53045732    -0.11500
C1978       C  0.77270370  0.40920523  0.52481002    -0.13000
C1979       C  0.82210217  0.48476363  0.54682360    -0.11500
C1980       C  0.85368519  0.49819700  0.54531663    -0.13000
C1981       C  0.75292823  0.14949766  0.76982294    -0.11500
C1982       C  0.74860256  0.17699599  0.75968453    -0.13000
C1983       C  0.70410754  0.21224254  0.75584415    -0.11500
C1984       C  0.67218588  0.21469234  0.75926911    -0.13000
C1985       C  0.75647794  0.22008948  0.71145221    -0.11500
C1986       C  0.76442393  0.22900924  0.68030988    -0.13000
C1987       C  0.51956895  0.24680121  0.53427296    -0.14600
C1988       C  0.51909511  0.26144002  0.50178499    -0.29800
H1989       H  0.53957104  0.25904794  0.54991299     0.14400
H1990       H  0.49992545  0.24938347  0.98540613     0.15000
C1991       C  0.61611839  0.28604675  0.98924296    -0.11500
C1992       C  0.58512662  0.28891657  0.98598993    -0.13000
C1993       C  0.53622196  0.29955608  0.91756277    -0.11500
C1994       C  0.54127774  0.29923052  0.94812577    -0.13000
C1995       C  0.54011284  0.35174032  0.51339627    -0.11500
C1996       C  0.54209296  0.32348371  0.00358882    -0.13000
C1997       C  0.52719613  0.49867005  0.75217695    -0.14600
C1998       C  0.50698317  0.00196193  0.78200816    -0.29800
H1999       H  0.53922873  0.52136650  0.73517379     0.14400
H2000       H  0.99525309  0.98032264  0.80088071     0.15000
C2001       C  0.52553327  0.09592704  0.76515451    -0.11500
C2002       C  0.01833819  0.06739528  0.77735663    -0.13000
C2003       C  0.92755993  0.03441366  0.79782147    -0.11500
C2004       C  0.95985840  0.03565325  0.79824442    -0.13000
C2005       C  0.01060485  0.04081116  0.86539855    -0.11500
C2006       C  0.00645725  0.03851913  0.83476000    -0.13000
C2007       C  0.76687464  0.26771342  0.76791510    -0.14600
C2008       C  0.76502245  0.23441847  0.77154044    -0.29800
H2009       H  0.75209792  0.27796725  0.74839237     0.14400
H2010       H  0.77993835  0.22422251  0.79097453     0.15000
C2011       C  0.78009646  0.35280991  0.77041354    -0.11500
C2012       C  0.78438374  0.32508607  0.77927579    -0.13000
C2013       C  0.85957323  0.28597337  0.78222167    -0.11500
C2014       C  0.82773668  0.28891190  0.78503828    -0.13000
C2015       C  0.77388823  0.28350670  0.82765979    -0.11500
C2016       C  0.76492998  0.27740169  0.85902349    -0.13000
C2017       C  0.78797850  0.79070100  0.29187822    -0.00700
C2018       C  0.99959320  0.53706310  0.29754413    -0.00700
C2019       C  0.54736253  0.79291147  0.48610326    -0.00700
C2020       C  0.74361467  0.71083310  0.25055834    -0.00700
C2021       C  0.78306632  0.96662370  0.04580649    -0.00700
C2022       C  0.99262714  0.71475542  0.05254894    -0.00700
C2023       C  0.75534055  0.54012111  0.49034356    -0.00700
C2024       C  0.53650006  0.96641039  0.23831768    -0.00700
Zr2025     Zr  0.97568013  0.54185785  0.49010077     2.17500
O2026       O  0.93535558  0.56706258  0.45565383    -0.49500
O2027       O  0.98552908  0.60247439  0.00319938    -0.72700
O2028       O  0.91365574  0.52561729  0.01436331    -0.79500
O2029       O  0.54708840  0.53471932  0.40755527    -0.81300
O2030       O  0.90597000  0.99314479  0.06826893    -0.76900
O2031       O  0.98913555  0.54351722  0.42506030    -0.88500
O2032       O  0.03196964  0.61473727  0.03581432    -0.74500
O2033       O  0.98927846  0.54523076  0.04855019    -0.84000
O2034       O  0.53937908  0.56248060  0.48784588    -0.83700
O2035       O  0.95844573  0.98404627  0.01534230    -0.70400
O2036       O  0.50955270  0.00223525  0.45948224    -0.82600
Zr2037     Zr  0.56254637  0.96631147  0.04818210     2.26400
Zr2038     Zr  0.96709604  0.98622129  0.07617028     2.06300
Zr2039     Zr  0.57056333  0.52148020  0.46139902     2.10000
Zr2040     Zr  0.55195299  0.56299753  0.04747992     1.78800
O2041       O  0.59979820  0.99006764  0.41398324    -0.91400
O2042       O  0.53367996  0.58039147  0.10570872    -0.39200
O2043       O  0.58139303  0.52173388  0.02090663    -0.75800
O2044       O  0.53312343  0.50765770  0.07565464    -0.94500
O2045       O  0.49942348  0.94550775  0.04601857    -0.87800
O2046       O  0.55606160  0.96484128  0.48623239    -0.90600
C2047       C  0.00628781  0.62274404  0.02023225     1.03100
C2048       C  0.51635420  0.54076549  0.40035847     1.16100
C2049       C  0.89555647  0.50981630  0.04310647     1.06800
O2050       O  0.94824167  0.51818839  0.12509904    -0.92800
O2051       O  0.48707709  0.96642313  0.12764118    -0.88500
O2052       O  0.54500519  0.95704564  0.11295845    -0.81700
C2053       C  0.51715095  0.95913790  0.13559457     1.13500
O2054       O  0.94281779  0.93792198  0.45009241    -0.94800
Zr2055     Zr  0.49218339  0.94591823  0.48572324     1.88900
O2056       O  0.55647458  0.90633646  0.03415721    -0.71400
O2057       O  0.92686175  0.93260966  0.09648123    -0.50700
O2058       O  0.93783961  0.90375434  0.01165457    -0.95400
O2059       O  0.51564642  0.93154471  0.42751324    -0.52600
O2060       O  0.51302794  0.89422929  0.99814878    -0.71900
C2061       C  0.53691009  0.88602679  0.01611874     1.00800
O2062       O  0.60776939  0.44067545  0.07638749    -0.60700
O2063       O  0.61001844  0.57474642  0.43799684    -0.55500
O2064       O  0.62727816  0.99192869  0.02857809    -0.92200
O2065       O  0.63126308  0.51822152  0.47391700    -0.90700
O2066       O  0.60757592  0.60145589  0.02085417    -0.91000
O2067       O  0.60069670  0.57012877  0.08434169    -0.89800
C2068       C  0.64451172  0.50737520  0.50058053     1.19300
H2069       H  0.54700481  0.58445639  0.47509783     0.35200
H2070       H  0.53913277  0.51189544  0.09885103     0.46100
H2071       H  0.57066251  0.95025068  0.47458494     0.39600
H2072       H  0.93404265  0.97345063  0.01232543     0.36100
H2073       H  0.54459194  0.60465174  0.10454135     0.27800
H2074       H  0.90852766  0.93816141  0.11496565     0.33800
H2075       H  0.94123761  0.88297017  0.00039945     0.39700
H2076       H  0.60033800  0.61446690  0.00110384     0.34200
H2077       H  0.62787134  0.56855405  0.41946251     0.33000
H2078       H  0.60966005  0.50884320  0.39646239     0.34700
H2079       H  0.53661477  0.92053054  0.43106971     0.33700
H2080       H  0.61364488  0.55125191  0.07958523     0.37700
H2081       H  0.61477022  0.45559119  0.09489863     0.30400
H2082       H  0.92106302  0.57903764  0.47240464     0.34600
H2083       H  0.94034423  0.91419554  0.44428028     0.37500
H2084       H  0.59461068  0.58705556  0.42488477     0.30100
H2085       H  0.59408350  0.41942711  0.08943572     0.43000
H2086       H  0.94388916  0.53969455  0.11430235     0.33000
H2087       H  0.00976273  0.58067511  0.10606206     0.40700
H2088       H  0.52685382  0.95344303  0.41427043     0.32500
H2089       H  0.91303707  0.92677565  0.07664113     0.32600
H2090       H  0.91991053  0.05019828  0.44727045     0.32800
Zr2091     Zr  0.80525012  0.55402728  0.29787608     2.17500
O2092       O  0.85020545  0.60461281  0.30248035    -0.49500
O2093       O  0.79326259  0.55670495  0.36114963    -0.72700
O2094       O  0.78252603  0.60651905  0.28729823    -0.79500
O2095       O  0.87829556  0.49800344  0.28964916    -0.81300
O2096       O  0.72556947  0.59425503  0.27103990    -0.76900
O2097       O  0.87032098  0.55146323  0.29828099    -0.88500
O2098       O  0.74972949  0.51140572  0.38391552    -0.74500
O2099       O  0.74111383  0.53373270  0.31407846    -0.84000
O2100       O  0.79732171  0.49743520  0.32321091    -0.83700
O2101       O  0.77896472  0.55774963  0.24401740    -0.70400
O2102       O  0.83151661  0.52363620  0.25284799    -0.82600
Zr2103     Zr  0.73086043  0.94968746  0.23921583     2.26400
Zr2104     Zr  0.71485667  0.53608845  0.26056227     2.06300
Zr2105     Zr  0.82157449  0.96690879  0.27704366     2.10000
Zr2106     Zr  0.73363962  0.97724612  0.33760929     1.78800
O2107       O  0.86960682  0.95519007  0.23334439    -0.91400
O2108       O  0.67615813  0.48733956  0.36908526    -0.39200
O2109       O  0.75754606  0.94607065  0.29268351    -0.75800
O2110       O  0.70509850  0.97941389  0.28558209    -0.94500
O2111       O  0.74001658  0.00638947  0.21440627    -0.87800
O2112       O  0.79530071  0.96899224  0.22363875    -0.90600
C2113       C  0.77189912  0.53859715  0.38652626     1.03100
C2114       C  0.88993895  0.52843366  0.29541320     1.16100
C2115       C  0.75315237  0.61466696  0.27819503     1.06800
O2116       O  0.66299807  0.54838071  0.29901451    -0.92800
O2117       O  0.65871883  0.50698857  0.24436127    -0.88500
O2118       O  0.66617438  0.95345021  0.23619448    -0.81700
C2119       C  0.64705777  0.97695066  0.23775920     1.13500
O2120       O  0.84695347  0.57873720  0.18203161    -0.94800
Zr2121     Zr  0.80385283  0.52610280  0.20042890     1.88900
O2122       O  0.74230095  0.94899535  0.17517028    -0.71400
O2123       O  0.70201056  0.56625553  0.20806231    -0.50700
O2124       O  0.78134599  0.56296970  0.15912957    -0.95400
O2125       O  0.86269446  0.51659930  0.17209959    -0.52600
O2126       O  0.78396708  0.99567619  0.15262336    -0.71900
C2127       C  0.76189210  0.96855260  0.14963055     1.00400
O2128       O  0.69328345  0.89536198  0.23228134    -0.60700
O2129       O  0.83995846  0.93439151  0.32510124    -0.55500
O2130       O  0.75041201  0.89657836  0.25507465    -0.92200
O2131       O  0.80629407  0.90757588  0.27388846    -0.90700
O2132       O  0.75461526  0.93580737  0.37492066    -0.91000
O2133       O  0.68662008  0.92790264  0.35831061    -0.89800
C2134       C  0.77847486  0.88763930  0.26645818     1.19300
H2135       H  0.81007344  0.49623572  0.34346321     0.35200
H2136       H  0.67945204  0.97060561  0.29326711     0.46100
H2137       H  0.80531990  0.95480387  0.20723742     0.39600
H2138       H  0.78337560  0.58035418  0.23286126     0.36100
H2139       H  0.67776381  0.98311522  0.39342792     0.27800
H2140       H  0.68150140  0.57741186  0.21656046     0.33800
H2141       H  0.79119005  0.55759983  0.13542645     0.39700
H2142       H  0.74811005  0.94152470  0.39932262     0.34200
H2143       H  0.86472711  0.93070358  0.31607802     0.33000
H2144       H  0.88725983  0.94693507  0.24726939     0.34700
H2145       H  0.86074368  0.51756291  0.14657793     0.33700
H2146       H  0.68343085  0.91551530  0.33711216     0.37700
H2147       H  0.67289453  0.89181511  0.25200822     0.30400
H2148       H  0.83842027  0.61739027  0.32032212     0.34600
H2149       H  0.85310554  0.57917551  0.15613736     0.37500
H2150       H  0.84393410  0.94998609  0.34372382     0.30100
H2151       H  0.68175696  0.89873508  0.21082911     0.43000
H2152       H  0.67263743  0.55397976  0.32122539     0.33000
H2153       H  0.67913305  0.51216629  0.36816406     0.40700
H2154       H  0.85279131  0.98617191  0.16626584     0.32500
H2155       H  0.72324158  0.58492307  0.20171269     0.32600
H2156       H  0.85261573  0.61845722  0.27984997     0.32800
Zr2157     Zr  0.79249306  0.70582164  0.06104729     2.17500
O2158       O  0.79250525  0.66070791  0.10636351    -0.49500
O2159       O  0.85887325  0.70975597  0.05964748    -0.72700
O2160       O  0.78514100  0.64956655  0.03984607    -0.79500
O2161       O  0.76823379  0.76391213  0.13271678    -0.81300
O2162       O  0.77457603  0.65341703  0.48358679    -0.76900
O2163       O  0.77990252  0.71151256  0.12410804    -0.88500
O2164       O  0.88901168  0.75345469  0.02100379    -0.74500
O2165       O  0.81869858  0.72152753  0.00119952    -0.84000
O2166       O  0.81830777  0.76433028  0.05826685    -0.83700
O2167       O  0.74191771  0.69458289  0.02737991    -0.70400
O2168       O  0.74273585  0.73392451  0.07891851    -0.82600
Zr2169     Zr  0.74606468  0.79802635  0.48016837     2.26400
Zr2170     Zr  0.76887030  0.71114043  0.46772704     2.06300
Zr2171     Zr  0.76856569  0.79255073  0.07495003     2.10000
Zr2172     Zr  0.84348686  0.78024271  0.99828872     1.78800
O2173       O  0.71807566  0.80788722  0.11287291    -0.91400
O2174       O  0.88169598  0.76623434  0.44552436    -0.39200
O2175       O  0.79443672  0.80873503  0.01498098    -0.75800
O2176       O  0.79610151  0.76991738  0.46233403    -0.94500
O2177       O  0.71936852  0.73970793  0.48462695    -0.87800
O2178       O  0.71908814  0.78273314  0.04055027    -0.90600
C2179       C  0.88819186  0.72855501  0.04328295     1.03100
C2180       C  0.77223144  0.73443482  0.14389311     1.16100
C2181       C  0.77956701  0.63705572  0.51170957     1.06800
O2182       O  0.81519051  0.69632946  0.42422616    -0.92800
O2183       O  0.76411064  0.73631781  0.40957034    -0.88500
O2184       O  0.75293092  0.78899805  0.41737429    -0.81700
C2185       C  0.75926848  0.76539215  0.39798595     1.13500
O2186       O  0.66850216  0.67610503  0.08718063    -0.94800
Zr2187     Zr  0.69364719  0.72415749  0.04429457     1.88900
O2188       O  0.67989965  0.79497368  0.48203628    -0.71400
O2189       O  0.71841572  0.67502782  0.44634611    -0.50700
O2190       O  0.65749041  0.68022942  0.51899857    -0.95400
O2191       O  0.65513908  0.73911781  0.09472935    -0.52600
O2192       O  0.64929630  0.75124222  0.52044127    -0.71900
C2193       C  0.65041293  0.77615723  0.49796060     1.00400
O2194       O  0.74572986  0.84845033  0.44196509    -0.60700
O2195       O  0.81466743  0.82796137  0.10284952    -0.55500
O2196       O  0.76032892  0.85454813  0.99893802    -0.92200
O2197       O  0.77103223  0.85131422  0.05606070    -0.90700
O2198       O  0.88018983  0.82399335  0.02636950    -0.91000
O2199       O  0.87110912  0.82862084  0.45538232    -0.89800
C2200       C  0.76800139  0.86779371  0.02729519     1.19300
H2201       H  0.83666585  0.76856992  0.07381286     0.35200
H2202       H  0.80798619  0.77745505  0.43874062     0.46100
H2203       H  0.70090857  0.79607862  0.04756898     0.39600
H2204       H  0.73008282  0.67124856  0.03041703     0.36100
H2205       H  0.90729225  0.77551642  0.44860621     0.27800
H2206       H  0.73037064  0.66208747  0.42878632     0.33800
H2207       H  0.63189080  0.68299956  0.52571381     0.39700
H2208       H  0.90585634  0.82212397  0.01842178     0.34200
H2209       H  0.80059370  0.83677371  0.12258083     0.33000
H2210       H  0.72942303  0.82751876  0.12445140     0.34700
H2211       H  0.65150844  0.76221794  0.08831316     0.33700
H2212       H  0.85194315  0.84260394  0.45581507     0.37700
H2213       H  0.76885800  0.85220832  0.42543712     0.30400
H2214       H  0.81260262  0.64914189  0.09773120     0.34600
H2215       H  0.64156506  0.67390523  0.08929158     0.37500
H2216       H  0.82790601  0.81227106  0.11441696     0.30100
H2217       H  0.72610758  0.84215736  0.42722991     0.43000
H2218       H  0.83399299  0.69002441  0.43796560     0.33000
H2219       H  0.87982321  0.74152509  0.44877331     0.40700
H2220       H  0.67103444  0.74176324  0.11352124     0.32500
H2221       H  0.70759195  0.65819887  0.46635495     0.32600
H2222       H  0.76969954  0.64405738  0.10615170     0.32800
Zr2223     Zr  0.55231247  0.71345224  0.22838564     2.17500
O2224       O  0.59289445  0.70633162  0.17568588    -0.49500
O2225       O  0.54199504  0.65256186  0.24154542    -0.72700
O2226       O  0.61524282  0.71193929  0.23972915    -0.79500
O2227       O  0.97686409  0.72560886  0.17326076    -0.81300
O2228       O  0.62552843  0.73723740  0.28981052    -0.76900
O2229       O  0.53058293  0.70666005  0.17114400    -0.88500
O2230       O  0.50147822  0.63995953  0.29181672    -0.74500
O2231       O  0.54506088  0.70500729  0.29104169    -0.84000
O2232       O  0.98938107  0.69822705  0.24868585    -0.83700
O2233       O  0.57925109  0.76658775  0.24752460    -0.70400
O2234       O  0.52503420  0.75961938  0.20925004    -0.82600
Zr2235     Zr  0.98043528  0.78991676  0.31324998     2.26400
Zr2236     Zr  0.57064183  0.75803966  0.31047121     2.06300
Zr2237     Zr  0.96124456  0.74405182  0.23113836     2.10000
Zr2238     Zr  0.98317044  0.69126549  0.31114026     1.78800
O2239       O  0.94095776  0.77775141  0.18542430    -0.91400
O2240       O  0.49725750  0.66372735  0.36300603    -0.39200
O2241       O  0.95384332  0.73652243  0.29413527    -0.75800
O2242       O  0.50641895  0.74227590  0.33141639    -0.94500
O2243       O  0.54439417  0.80486170  0.29232211    -0.87800
O2244       O  0.98634857  0.79727200  0.25048234    -0.90600
C2245       C  0.52288438  0.63191677  0.26641702     1.03100
C2246       C  0.00343205  0.71389729  0.15735640     1.16100
C2247       C  0.63550243  0.72174280  0.26325776     1.06800
O2248       O  0.58882699  0.72480696  0.35790601    -0.92800
O2249       O  0.55888129  0.78030102  0.36670212    -0.88500
O2250       O  0.50477856  0.79889782  0.36886026    -0.81700
C2251       C  0.53320917  0.79323134  0.38236260     1.13500
O2252       O  0.59891262  0.81770780  0.17959602    -0.94800
Zr2253     Zr  0.55072649  0.81190106  0.22969074     1.88900
O2254       O  0.49165412  0.85081901  0.29816342    -0.71400
O2255       O  0.62061615  0.80572690  0.30972963    -0.50700
O2256       O  0.60537999  0.85003585  0.24091524    -0.95400
O2257       O  0.53237216  0.83588894  0.17638390    -0.52600
O2258       O  0.53166703  0.86263167  0.24744289    -0.71900
C2259       C  0.51090967  0.87113794  0.27294662     1.00400
O2260       O  0.93986903  0.79374038  0.36713181    -0.60700
O2261       O  0.91240133  0.69556882  0.23008556    -0.55500
O2262       O  0.91718279  0.79077064  0.30261979    -0.92200
O2263       O  0.90599908  0.76367996  0.25370900    -0.90700
O2264       O  0.92776841  0.65447055  0.29971487    -0.91000
O2265       O  0.93605241  0.68184816  0.36233938    -0.89800
C2266       C  0.89640903  0.77994157  0.27983025     1.19300
H2267       H  0.97928774  0.67778455  0.23894785     0.35200
H2268       H  0.50222187  0.73818177  0.35676878     0.46100
H2269       H  0.97321592  0.81430778  0.24289353     0.39600
H2270       H  0.60490635  0.77268120  0.23831192     0.36100
H2271       H  0.48396780  0.64012674  0.36466927     0.27800
H2272       H  0.63654262  0.79792250  0.32597532     0.33800
H2273       H  0.60406447  0.87215030  0.22912300     0.39700
H2274       H  0.93133926  0.63137582  0.30628435     0.34200
H2275       H  0.89432324  0.70437076  0.21716728     0.33000
H2276       H  0.91857509  0.76345272  0.17952481     0.34700
H2277       H  0.53923921  0.86059606  0.17702390     0.33700
H2278       H  0.92947096  0.70422102  0.36537825     0.37700
H2279       H  0.92831561  0.81343962  0.36249363     0.30400
H2280       H  0.60355728  0.68636312  0.18157734     0.34600
H2281       H  0.60519509  0.84206452  0.17185635     0.37500
H2282       H  0.92299890  0.68063242  0.21389595     0.30100
H2283       H  0.91982551  0.77389987  0.36883687     0.43000
H2284       H  0.58425265  0.70138219  0.35113840     0.33000
H2285       H  0.52329480  0.66213865  0.35682820     0.40700
H2286       H  0.50529047  0.83119479  0.18039152     0.32500
H2287       H  0.63497351  0.80715779  0.28606132     0.32600
H2288       H  0.61355174  0.72571489  0.17332846     0.32800
C2289       C  0.57612316  0.96748294  0.23602837    -0.11500
C2290       C  0.60870848  0.96918763  0.23511526    -0.13000
C2291       C  0.51842518  0.93576781  0.26085577    -0.11500
C2292       C  0.51027217  0.90648118  0.27191156    -0.13000
C2293       C  0.52681004  0.96188683  0.20255245    -0.11500
C2294       C  0.52154438  0.95801314  0.17242340    -0.13000
C2295       C  0.76606825  0.57175549  0.50637263    -0.11500
C2296       C  0.77428031  0.60105553  0.51163422    -0.13000
C2297       C  0.76642605  0.54746593  0.45263743    -0.11500
C2298       C  0.77238943  0.54826588  0.42124436    -0.13000
C2299       C  0.68313812  0.51744574  0.49973140    -0.11500
C2300       C  0.71547590  0.52862294  0.49625240    -0.13000
C2301       C  0.99814042  0.70913348  0.08976108    -0.11500
C2302       C  0.00187798  0.70881677  0.12066860    -0.13000
C2303       C  0.92321059  0.72174644  0.04987009    -0.11500
C2304       C  0.95436065  0.71868399  0.05205151    -0.13000
C2305       C  0.99796582  0.68436445  0.03420987    -0.11500
C2306       C  0.00037301  0.65682798  0.02413995    -0.13000
C2307       C  0.76240863  0.98913662  0.02654108    -0.14600
C2308       C  0.77641195  0.51246923  0.00265944    -0.29800
H2309       H  0.73323683  0.97984050  0.02769022     0.14400
H2310       H  0.79490616  0.50435537  0.48540034     0.15000
C2311       C  0.76730170  0.96137568  0.08287517    -0.11500
C2312       C  0.76015911  0.96042259  0.11432019    -0.13000
C2313       C  0.77913324  0.93331131  0.03213486    -0.11500
C2314       C  0.77417584  0.90381594  0.02711605    -0.13000
C2315       C  0.82205870  0.98164647  0.04444236    -0.11500
C2316       C  0.85356043  0.99515006  0.04369970    -0.13000
C2317       C  0.75159398  0.64925139  0.27189173    -0.11500
C2318       C  0.74762443  0.67680712  0.26177179    -0.13000
C2319       C  0.70440735  0.71301867  0.25609545    -0.11500
C2320       C  0.67260106  0.71594037  0.25928224    -0.13000
C2321       C  0.75751048  0.71860799  0.21272966    -0.11500
C2322       C  0.76595976  0.72589163  0.18139567    -0.13000
C2323       C  0.51947616  0.74658229  0.03594299    -0.14600
C2324       C  0.51900078  0.76119149  0.00343323    -0.29800
H2325       H  0.53965312  0.75867836  0.05149756     0.14400
H2326       H  0.49981531  0.74964086  0.48644069     0.15000
C2327       C  0.61571103  0.78328801  0.49046144    -0.11500
C2328       C  0.58520013  0.78760086  0.48692939    -0.13000
C2329       C  0.53625496  0.79946572  0.41853112    -0.11500
C2330       C  0.54154949  0.79897434  0.44903309    -0.13000
C2331       C  0.54193975  0.85150822  0.01393065    -0.11500
C2332       C  0.54322237  0.82357962  0.50427563    -0.13000
C2333       C  0.52787798  0.99965282  0.25123603    -0.14600
C2334       C  0.50761474  0.50257368  0.28338801    -0.29800
H2335       H  0.54008262  0.02236625  0.23432288     0.14400
H2336       H  0.99545437  0.48125404  0.30048089     0.15000
C2337       C  0.52464024  0.59677740  0.26666002    -0.11500
C2338       C  0.01940761  0.56840491  0.27717948    -0.13000
C2339       C  0.92822854  0.53645023  0.29775454    -0.11500
C2340       C  0.96051205  0.53733568  0.29785428    -0.13000
C2341       C  0.01064769  0.54077584  0.36513322    -0.11500
C2342       C  0.00685331  0.53902606  0.33437108    -0.13000
C2343       C  0.76719345  0.76763331  0.26891294    -0.14600
C2344       C  0.76533101  0.73431518  0.27246651    -0.29800
H2345       H  0.75263386  0.77801961  0.24929265     0.14400
H2346       H  0.77993183  0.72405605  0.29214865     0.15000
C2347       C  0.77897335  0.85277835  0.27330208    -0.11500
C2348       C  0.78323126  0.82491262  0.28208676    -0.13000
C2349       C  0.85925547  0.78591903  0.28388253    -0.11500
C2350       C  0.82744481  0.78902711  0.28681423    -0.13000
C2351       C  0.77330739  0.78143883  0.32933573    -0.11500
C2352       C  0.76442710  0.77330877  0.36045793    -0.13000
C2353       C  0.78802645  0.79071412  0.79206891    -0.00700
C2354       C  0.99898799  0.53646466  0.79691925    -0.00700
C2355       C  0.54653154  0.79249703  0.98668509    -0.00700
C2356       C  0.74369845  0.71110636  0.75017561    -0.00700
C2357       C  0.78431853  0.96713026  0.54568625    -0.00700
C2358       C  0.99353456  0.71541031  0.55139759    -0.00700
C2359       C  0.75716375  0.53942920  0.98957060    -0.00700
C2360       C  0.53608730  0.96570196  0.73811646    -0.00700
Zr2361     Zr  0.97844811  0.54269306  0.98880069     2.17500
O2362       O  0.93888910  0.56876665  0.95423331    -0.49500
O2363       O  0.98353694  0.60216551  0.50324139    -0.72700
O2364       O  0.91075958  0.52436706  0.51536936    -0.79500
O2365       O  0.54716242  0.53241069  0.90709888    -0.81300
O2366       O  0.90756364  0.99593475  0.56840623    -0.76900
O2367       O  0.99130491  0.54480551  0.92376229    -0.88500
O2368       O  0.02744727  0.61371287  0.53884348    -0.74500
O2369       O  0.98455295  0.54326520  0.55047979    -0.84000
O2370       O  0.54177148  0.56239613  0.98745374    -0.83700
O2371       O  0.95866168  0.98542199  0.51572794    -0.70400
O2372       O  0.50952918  0.00220437  0.95955306    -0.82600
Zr2373     Zr  0.56386926  0.96625927  0.54709800     2.26400
Zr2374     Zr  0.96881379  0.98845147  0.57603925     2.06300
Zr2375     Zr  0.57223542  0.52100099  0.96075710     2.10000
Zr2376     Zr  0.54896250  0.56329794  0.54796993     1.78800
O2377       O  0.60210198  0.99184516  0.91598299    -0.91400
O2378       O  0.53071953  0.58082481  0.60613860    -0.39200
O2379       O  0.57916482  0.52236348  0.52168318    -0.75800
O2380       O  0.53082814  0.50785000  0.57627456    -0.94500
O2381       O  0.50026463  0.94643200  0.54643769    -0.87800
O2382       O  0.55612726  0.96538770  0.98699265    -0.90600
C2383       C  0.00344506  0.62221634  0.52124588     1.03100
C2384       C  0.51650808  0.53919327  0.90035788     1.16100
C2385       C  0.89242224  0.50800804  0.54372619     1.06800
O2386       O  0.94146612  0.51229049  0.62686930    -0.92800
O2387       O  0.48920609  0.96702239  0.62711265    -0.88500
O2388       O  0.54680999  0.95701631  0.61201267    -0.81700
C2389       C  0.51909673  0.95925473  0.63479537     1.13500
O2390       O  0.94633636  0.93765547  0.94734785    -0.94800
Zr2391     Zr  0.49275642  0.94559274  0.98486909     1.88900
O2392       O  0.55728360  0.90639024  0.53310333    -0.71400
O2393       O  0.92830534  0.93499951  0.59669734    -0.50700
O2394       O  0.93630327  0.90547358  0.51472121    -0.95400
O2395       O  0.51893310  0.93062669  0.92785415    -0.52600
O2396       O  0.51268096  0.89440980  0.49830309    -0.71900
C2397       C  0.53703337  0.88612509  0.51563302     1.00800
O2398       O  0.60654230  0.44133385  0.57650422    -0.60700
O2399       O  0.61064894  0.57478441  0.93708923    -0.55500
O2400       O  0.62856008  0.99142700  0.52640854    -0.92200
O2401       O  0.63304072  0.51702476  0.97300552    -0.90700
O2402       O  0.60447577  0.60131413  0.52037170    -0.91000
O2403       O  0.59776277  0.57215058  0.58465389    -0.89800
C2404       C  0.64629958  0.50603375  0.99963006     1.19300
H2405       H  0.54942660  0.58433609  0.97462898     0.35200
H2406       H  0.53672152  0.51200895  0.59953477     0.46100
H2407       H  0.57130186  0.95116805  0.97556131     0.39600
H2408       H  0.93416893  0.97463566  0.51321068     0.36100
H2409       H  0.54037337  0.60536515  0.60448933     0.27800
H2410       H  0.91146978  0.94037367  0.61661929     0.33800
H2411       H  0.93836795  0.88445454  0.50339499     0.39700
H2412       H  0.59615838  0.61764163  0.50444567     0.34200
H2413       H  0.63208187  0.56873105  0.92289553     0.33000
H2414       H  0.61210986  0.50912340  0.89608730     0.34700
H2415       H  0.53969158  0.91975002  0.93256903     0.33700
H2416       H  0.61185758  0.55413996  0.57940728     0.37700
H2417       H  0.61378140  0.45633020  0.59487614     0.30400
H2418       H  0.92467210  0.58074856  0.97103761     0.34600
H2419       H  0.94490901  0.91420834  0.94082824     0.37500
H2420       H  0.59715330  0.58421374  0.91949918     0.30100
H2421       H  0.59302044  0.42011107  0.58972810     0.43000
H2422       H  0.94198045  0.53586076  0.61800138     0.33000
H2423       H  0.00135805  0.57997722  0.60735678     0.40700
H2424       H  0.53054391  0.95243586  0.91463415     0.32500
H2425       H  0.91279109  0.93012641  0.57786321     0.32600
H2426       H  0.91741122  0.04767827  0.94977967     0.32800
Zr2427     Zr  0.80538686  0.55378569  0.79687328     2.17500
O2428       O  0.85044520  0.60411947  0.80217571    -0.49500
O2429       O  0.79383587  0.55658452  0.86016645    -0.72700
O2430       O  0.78321892  0.60658923  0.78567144    -0.79500
O2431       O  0.87730447  0.49639569  0.79131670    -0.81300
O2432       O  0.72612086  0.59441084  0.76974616    -0.76900
O2433       O  0.87020783  0.55055307  0.79712719    -0.88500
O2434       O  0.75129926  0.51070264  0.88331584    -0.74500
O2435       O  0.74130330  0.53372707  0.81359696    -0.84000
O2436       O  0.79744061  0.49716492  0.82213449    -0.83700
O2437       O  0.77905424  0.55720685  0.74305774    -0.70400
O2438       O  0.83132692  0.52296745  0.75198259    -0.82600
Zr2439     Zr  0.73002687  0.94924195  0.73877171     2.26400
Zr2440     Zr  0.71493287  0.53602379  0.76014644     2.06300
Zr2441     Zr  0.82073715  0.96588200  0.77637585     2.10000
Zr2442     Zr  0.73286197  0.97586870  0.83721366     1.78800
O2443       O  0.86993151  0.95181988  0.73570790    -0.91400
O2444       O  0.67675021  0.48769539  0.86874949    -0.39200
O2445       O  0.75675980  0.94494868  0.79205142    -0.75800
O2446       O  0.70436358  0.97897746  0.78527863    -0.94500
O2447       O  0.73927690  0.00608099  0.71419903    -0.87800
O2448       O  0.79445825  0.96844834  0.72296061    -0.90600
C2449       C  0.77322251  0.53808129  0.88574034     1.03100
C2450       C  0.88928817  0.52706867  0.79588458     1.16100
C2451       C  0.75384213  0.61482089  0.77662742     1.06800
O2452       O  0.66376159  0.54733646  0.80031983    -0.92800
O2453       O  0.65881863  0.50733566  0.74340749    -0.88500
O2454       O  0.66548468  0.95323003  0.73602767    -0.81700
C2455       C  0.64652726  0.97682320  0.73766454     1.13500
O2456       O  0.84904556  0.57620456  0.68184522    -0.94800
Zr2457     Zr  0.80343464  0.52501109  0.69965315     1.88900
O2458       O  0.74119105  0.94864178  0.67475208    -0.71400
O2459       O  0.70218972  0.56744312  0.70839204    -0.50700
O2460       O  0.78141026  0.56310576  0.65928649    -0.95400
O2461       O  0.86043522  0.51339997  0.66911033    -0.52600
O2462       O  0.78466988  0.99421492  0.65269493    -0.71900
C2463       C  0.76186032  0.96764981  0.64944166     1.00400
O2464       O  0.69283035  0.89499144  0.73110317    -0.60700
O2465       O  0.83536009  0.93465948  0.82742927    -0.55500
O2466       O  0.74912439  0.89606323  0.75559022    -0.92200
O2467       O  0.80679271  0.90707298  0.77037028    -0.90700
O2468       O  0.75494417  0.93558004  0.87493533    -0.91000
O2469       O  0.68652434  0.92551469  0.85586279    -0.89800
C2470       C  0.77805997  0.88713554  0.76505165     1.19300
H2471       H  0.81034982  0.49594159  0.84226939     0.35200
H2472       H  0.67869639  0.97030981  0.79299767     0.46100
H2473       H  0.80453656  0.95442822  0.70638719     0.39600
H2474       H  0.78358789  0.57974149  0.73171763     0.36100
H2475       H  0.67584908  0.97820898  0.89321115     0.27800
H2476       H  0.68329076  0.58016479  0.71754464     0.33800
H2477       H  0.79166134  0.55850374  0.63542119     0.39700
H2478       H  0.74255142  0.93722868  0.89892250     0.34200
H2479       H  0.85705211  0.92535162  0.81834045     0.33000
H2480       H  0.88243304  0.93778611  0.75036507     0.34700
H2481       H  0.85881637  0.51760213  0.64371664     0.33700
H2482       H  0.68411030  0.91372614  0.83417813     0.37700
H2483       H  0.67293006  0.89090036  0.75130265     0.30400
H2484       H  0.83837923  0.61715111  0.81956275     0.34600
H2485       H  0.85347121  0.57792465  0.65576558     0.37500
H2486       H  0.84478282  0.95180039  0.84300448     0.30100
H2487       H  0.68062350  0.89876322  0.71017944     0.43000
H2488       H  0.64971688  0.52486195  0.80988117     0.33000
H2489       H  0.68036414  0.51253207  0.86855033     0.40700
H2490       H  0.85963402  0.98892213  0.67615190     0.32500
H2491       H  0.72444368  0.58484759  0.70109241     0.32600
H2492       H  0.85359433  0.61783642  0.77937702     0.32800
Zr2493     Zr  0.79384512  0.70661264  0.56109434     2.17500
O2494       O  0.79546069  0.66177892  0.60619121    -0.49500
O2495       O  0.86025008  0.71097561  0.55934241    -0.72700
O2496       O  0.78642114  0.65018941  0.54028696    -0.79500
O2497       O  0.76891865  0.76478216  0.63228734    -0.81300
O2498       O  0.77457059  0.65339088  0.98275154    -0.76900
O2499       O  0.78062356  0.71233666  0.62407125    -0.88500
O2500       O  0.89024970  0.75419420  0.52005481    -0.74500
O2501       O  0.81932921  0.72161513  0.50099266    -0.84000
O2502       O  0.82015349  0.76503809  0.55757035    -0.83700
O2503       O  0.74277432  0.69527724  0.52814076    -0.70400
O2504       O  0.74439580  0.73510660  0.57900010    -0.82600
Zr2505     Zr  0.74507545  0.79761750  0.98048800     2.26400
Zr2506     Zr  0.76878624  0.71123787  0.96726326     2.06300
Zr2507     Zr  0.77074409  0.79361048  0.57429733     2.10000
Zr2508     Zr  0.84451139  0.78029035  0.49725702     1.78800
O2509       O  0.72379100  0.81215237  0.61402293    -0.91400
O2510       O  0.88214642  0.76832024  0.94645062    -0.39200
O2511       O  0.79588121  0.80924194  0.51402951    -0.75800
O2512       O  0.79559131  0.77005323  0.96259908    -0.94500
O2513       O  0.71880034  0.73925892  0.98410120    -0.87800
O2514       O  0.72066653  0.78379120  0.54055048    -0.90600
C2515       C  0.88947116  0.72959027  0.54262579     1.03100
C2516       C  0.77278257  0.73532651  0.64367748     1.16100
C2517       C  0.77903961  0.63674986  0.01092671     1.06800
O2518       O  0.81731213  0.69905877  0.92440443    -0.92800
O2519       O  0.76337866  0.73688547  0.90952815    -0.88500
O2520       O  0.75266581  0.78966582  0.91754046    -0.81700
C2521       C  0.75875063  0.76606309  0.89807363     1.13500
O2522       O  0.67024598  0.67686035  0.58780057    -0.94800
Zr2523     Zr  0.69477577  0.72523687  0.54508869     1.88900
O2524       O  0.67894577  0.79428579  0.98200045    -0.71400
O2525       O  0.72060889  0.67502068  0.94284339    -0.50700
O2526       O  0.65720279  0.67909203  0.01751718    -0.95400
O2527       O  0.65790388  0.73985943  0.59689904    -0.52600
O2528       O  0.64826411  0.74985512  0.01937852    -0.71900
C2529       C  0.64945217  0.77514004  0.99740704     1.00400
O2530       O  0.74185825  0.84788454  0.94335440    -0.60700
O2531       O  0.81973382  0.82745349  0.60002876    -0.55500
O2532       O  0.76095179  0.85513726  0.49836613    -0.92200
O2533       O  0.77286412  0.85219845  0.55511468    -0.90700
O2534       O  0.88091996  0.82528431  0.52401641    -0.91000
O2535       O  0.86823493  0.83035640  0.95824484    -0.89800
C2536       C  0.76924772  0.86853607  0.52647827     1.19300
H2537       H  0.83871250  0.76939765  0.57290105     0.35200
H2538       H  0.80757773  0.77782906  0.93910325     0.46100
H2539       H  0.70270026  0.79735292  0.54765354     0.39600
H2540       H  0.73091525  0.67194656  0.53157547     0.36100
H2541       H  0.90721488  0.77965365  0.94916530     0.27800
H2542       H  0.73373543  0.66188912  0.92637352     0.33800
H2543       H  0.63142539  0.68087957  0.02503853     0.39700
H2544       H  0.90657802  0.82263602  0.51741414     0.34200
H2545       H  0.80729626  0.84170224  0.61568133     0.33000
H2546       H  0.73748706  0.82873310  0.62776624     0.34700
H2547       H  0.63218732  0.73152169  0.59353448     0.33700
H2548       H  0.84642563  0.83872549  0.95190269     0.37700
H2549       H  0.76491177  0.85284077  0.92668448     0.30400
H2550       H  0.81555506  0.65039604  0.59710926     0.34600
H2551       H  0.64329140  0.67319919  0.58880195     0.37500
H2552       H  0.82823032  0.81155460  0.61630851     0.30100
H2553       H  0.72237298  0.84091635  0.92865024     0.43000
H2554       H  0.83480737  0.69095843  0.93863996     0.33000
H2555       H  0.88261142  0.74399272  0.95001170     0.40700
H2556       H  0.66063555  0.76467744  0.59429320     0.32500
H2557       H  0.70836527  0.65838547  0.96256734     0.32600
H2558       H  0.77271284  0.64490845  0.60653161     0.32800
Zr2559     Zr  0.55224685  0.71280550  0.72739738     2.17500
O2560       O  0.59387283  0.70708132  0.67482698    -0.49500
O2561       O  0.54176524  0.65164204  0.74044546    -0.72700
O2562       O  0.61507166  0.71107497  0.73902504    -0.79500
O2563       O  0.97663267  0.72665043  0.67210958    -0.81300
O2564       O  0.62505374  0.73532188  0.78977131    -0.76900
O2565       O  0.52995911  0.70742052  0.66987023    -0.88500
O2566       O  0.50295495  0.63948712  0.79189549    -0.74500
O2567       O  0.54480456  0.70374008  0.79006874    -0.84000
O2568       O  0.98821660  0.69943388  0.74655158    -0.83700
O2569       O  0.57931127  0.76540381  0.74780554    -0.70400
O2570       O  0.52565226  0.75966168  0.70899627    -0.82600
Zr2571     Zr  0.98122091  0.79020254  0.81310857     2.26400
Zr2572     Zr  0.57037641  0.75615068  0.81080683     2.06300
Zr2573     Zr  0.96191793  0.74667898  0.72949278     2.10000
Zr2574     Zr  0.98092579  0.69109624  0.80894052     1.78800
O2575       O  0.94625115  0.78422387  0.68415230    -0.91400
O2576       O  0.49715609  0.66462462  0.86304814    -0.39200
O2577       O  0.95374787  0.73788346  0.79246578    -0.75800
O2578       O  0.50608645  0.74099134  0.83148244    -0.94500
O2579       O  0.54491757  0.80358277  0.79298870    -0.87800
O2580       O  0.98795675  0.79885937  0.75030133    -0.90600
C2581       C  0.52369156  0.63121271  0.76611299     1.03100
C2582       C  0.00309265  0.71465957  0.65632520     1.16100
C2583       C  0.63518087  0.72043470  0.76282168     1.06800
O2584       O  0.58527106  0.72037708  0.85813353    -0.92800
O2585       O  0.55912247  0.77922676  0.86685579    -0.88500
O2586       O  0.50515956  0.79802670  0.86899313    -0.81700
C2587       C  0.53352347  0.79230697  0.88251092     1.13500
O2588       O  0.59887543  0.81722186  0.67948690    -0.94800
Zr2589     Zr  0.55166156  0.81138373  0.73040900     1.88900
O2590       O  0.49191306  0.85008356  0.79834981    -0.71400
O2591       O  0.62215459  0.80162594  0.81238452    -0.50700
O2592       O  0.60671309  0.84770478  0.74343731    -0.95400
O2593       O  0.53489614  0.83747328  0.67739802    -0.52600
O2594       O  0.53309321  0.86218841  0.74845994    -0.71900
C2595       C  0.51168733  0.87054382  0.77353151     1.00400
O2596       O  0.94162661  0.79779113  0.86633548    -0.60700
O2597       O  0.90951007  0.70215733  0.72638911    -0.55500
O2598       O  0.91738944  0.79008170  0.80343638    -0.92200
O2599       O  0.90654171  0.76549499  0.75304607    -0.90700
O2600       O  0.92526728  0.65687707  0.79463455    -0.91000
O2601       O  0.93232667  0.68127292  0.85884505    -0.89800
C2602       C  0.89668268  0.78029148  0.78021079     1.19300
H2603       H  0.97771105  0.67946441  0.73623071     0.35200
H2604       H  0.50177782  0.73680867  0.85682986     0.46100
H2605       H  0.97533360  0.81634274  0.74294092     0.39600
H2606       H  0.60499926  0.77148228  0.73876387     0.36100
H2607       H  0.48217728  0.64162941  0.86672716     0.27800
H2608       H  0.63747964  0.79220813  0.82821097     0.33800
H2609       H  0.60645844  0.87010027  0.73166114     0.39700
H2610       H  0.92530699  0.63394069  0.80513098     0.34200
H2611       H  0.89548331  0.71172744  0.70936817     0.33000
H2612       H  0.92187416  0.77305970  0.67925567     0.34700
H2613       H  0.54493825  0.86181192  0.67738072     0.33700
H2614       H  0.93081913  0.70401347  0.86634090     0.37700
H2615       H  0.93014191  0.81721455  0.86030431     0.30400
H2616       H  0.60394762  0.68660832  0.68007991     0.34600
H2617       H  0.60862247  0.84168341  0.67472454     0.37500
H2618       H  0.91966527  0.68443343  0.71402848     0.30100
H2619       H  0.92142813  0.77797167  0.86969438     0.43000
H2620       H  0.58567707  0.69836105  0.84835966     0.33000
H2621       H  0.52246772  0.66101155  0.85646697     0.40700
H2622       H  0.50804837  0.83576421  0.68219788     0.32500
H2623       H  0.63656717  0.80371671  0.78867157     0.32600
H2624       H  0.61481960  0.72608120  0.67352210     0.32800
C2625       C  0.57565798  0.96709871  0.73607016    -0.11500
C2626       C  0.60824117  0.96908705  0.73506615    -0.13000
C2627       C  0.51819710  0.93501479  0.76071941    -0.11500
C2628       C  0.51055771  0.90581366  0.77217984    -0.13000
C2629       C  0.52713419  0.96108821  0.70213858    -0.11500
C2630       C  0.52310991  0.95750888  0.67167516    -0.13000
C2631       C  0.76690280  0.57141508  0.00524959    -0.11500
C2632       C  0.77427375  0.60080138  0.01045323    -0.13000
C2633       C  0.76828689  0.54659764  0.95186833    -0.11500
C2634       C  0.77418028  0.54753534  0.92047014    -0.13000
C2635       C  0.68502441  0.51582737  0.99877128    -0.11500
C2636       C  0.71737358  0.52708184  0.99541610    -0.13000
C2637       C  0.99880388  0.70972765  0.58862556    -0.11500
C2638       C  0.00178361  0.70944129  0.61967581    -0.13000
C2639       C  0.92441594  0.72287375  0.54910121    -0.11500
C2640       C  0.95551008  0.71976198  0.55107767    -0.13000
C2641       C  0.99795361  0.68479784  0.53316543    -0.11500
C2642       C  0.99887344  0.65681277  0.52367519    -0.13000
C2643       C  0.76349966  0.98974723  0.52673030    -0.14600
C2644       C  0.77361860  0.51231364  0.50310283    -0.29800
H2645       H  0.73432301  0.98043620  0.52794399     0.14400
H2646       H  0.79846769  0.50529943  0.98524814     0.15000
C2647       C  0.76827504  0.96117639  0.58265294    -0.11500
C2648       C  0.76054451  0.95964758  0.61406882    -0.13000
C2649       C  0.78062215  0.93404731  0.53145342    -0.11500
C2650       C  0.77551214  0.90458822  0.52621677    -0.13000
C2651       C  0.82326814  0.98242719  0.54465237    -0.11500
C2652       C  0.85466384  0.99635197  0.54394781    -0.13000
C2653       C  0.75223277  0.64943369  0.77044575    -0.11500
C2654       C  0.74800253  0.67704270  0.76081425    -0.13000
C2655       C  0.70439487  0.71284107  0.75554481    -0.11500
C2656       C  0.67241049  0.71509673  0.75864521    -0.13000
C2657       C  0.75774323  0.71943357  0.71245861    -0.11500
C2658       C  0.76623593  0.72689459  0.68117172    -0.13000
C2659       C  0.51967324  0.74675819  0.53482019    -0.14600
C2660       C  0.51989346  0.76146536  0.50226454    -0.29800
H2661       H  0.53970980  0.75850458  0.55071493     0.14400
H2662       H  0.49879136  0.74912180  0.98789049     0.15000
C2663       C  0.61480657  0.78242440  0.99013101    -0.11500
C2664       C  0.58426811  0.78690949  0.98714814    -0.13000
C2665       C  0.53631595  0.79860387  0.91875972    -0.11500
C2666       C  0.54077913  0.79827438  0.94950975    -0.13000
C2667       C  0.54188975  0.85160069  0.51340970    -0.11500
C2668       C  0.54299236  0.82345090  0.00467233    -0.13000
C2669       C  0.52720686  0.99892669  0.75089256    -0.14600
C2670       C  0.50702319  0.50171573  0.78327776    -0.29800
H2671       H  0.53950829  0.02162832  0.73400076     0.14400
H2672       H  0.99488696  0.48063406  0.80095868     0.15000
C2673       C  0.52551553  0.59598670  0.76685307    -0.11500
C2674       C  0.01777388  0.56771942  0.77569193    -0.13000
C2675       C  0.92744848  0.53493594  0.79844368    -0.11500
C2676       C  0.95976821  0.53610429  0.79820055    -0.13000
C2677       C  0.01160179  0.54160858  0.86376908    -0.11500
C2678       C  0.00720546  0.53940269  0.83325682    -0.13000
C2679       C  0.76743080  0.76771266  0.76889580    -0.14600
C2680       C  0.76502608  0.73434899  0.77261845    -0.29800
H2681       H  0.75350513  0.77824313  0.74881460     0.14400
H2682       H  0.77903392  0.72388529  0.79267724     0.15000
C2683       C  0.77862265  0.85240213  0.77254774    -0.11500
C2684       C  0.78336184  0.82485992  0.78194168    -0.13000
C2685       C  0.85934470  0.78585586  0.78482077    -0.11500
C2686       C  0.82749331  0.78888641  0.78756139    -0.13000
C2687       C  0.77290974  0.78174265  0.82943068    -0.11500
C2688       C  0.76386816  0.77397779  0.86057956    -0.13000
loop_ 
_geom_bond_atom_site_label_1 
_geom_bond_atom_site_label_2 
_geom_bond_distance 
_geom_bond_site_symmetry_2 
_ccdc_geom_bond_type 
C1          C327   1.506       .  S
C1          C332   1.461       .  S
C1          C334   1.482       .  S
C1          C335   1.474       .  S
C2         C1662   1.533       .  S
C2          C322   1.472       .  S
C2          C324   1.465       .  S
C2          C326   1.473       .  S
C3          C644   1.531       .  S
C3          C312   1.473       .  S
C3          C314   1.479       .  S
C3          C316   1.485       .  S
C4          C328   1.507       .  S
C4          C302   1.459       .  S
C4          C303   1.477       .  S
C4          C305   1.477       .  S
C5          C291   1.503       .  S
C5          C295   1.457       .  S
C5          C297   1.469       .  S
C5          C299   1.470       .  S
C6         C1651   1.534       .  S
C6          C285   1.479       .  S
C6          C288   1.472       .  S
C6          C289   1.487       .  S
C7          C628   1.503       .  S
C7          C279   1.468       .  S
C7          C281   1.459       .  S
C7          C284   1.471       .  S
C8          C317   1.537       .  S
C8          C273   1.465       .  S
C8          C275   1.475       .  S
C8          C277   1.476       .  S
Zr9          O10   2.441       .  S
Zr9          O15   2.472       .  S
Zr9         O347   2.489       .  S
Zr9         O348   2.469       .  S
Zr9         O353   2.384       .  S
Zr9        O1362   2.388       .  S
Zr9        O1027   2.425   1_545  S
Zr9        O2036   2.402       .  S
O10          H66   0.990       .  S
O10         H746   0.990       .  S
O11        Zr345   2.496   1_554  S
O11          C31   1.294       .  A
O12        Zr345   2.471   1_554  S
O12          C33   1.290       .  A
O13         Zr23   2.416       .  S
O13          C32   1.280       .  A
O14         Zr22   2.411       .  S
O14         C705   1.279       .  A
O15        C1376   1.291       .  A
O16       Zr1368   2.389       .  S
O16          C31   1.272       .  A
O17        Zr345   2.386   1_554  S
O17        Zr694   2.406   1_545  S
O17       Zr1368   2.387       .  S
O18         Zr23   2.401       .  S
O18       Zr1353   2.390   1_455  S
O18        Zr360   2.380       .  S
O18          H53   0.967       .  S
O19         Zr22   2.398       .  S
O19       Zr1017   2.423   1_554  S
O19       Zr1719   2.379   1_554  S
O19          H56   0.963       .  S
O20         Zr39   2.383   1_455  S
O20       Zr2025   2.402   1_455  S
O20        Zr695   2.376       .  S
Zr21        O718   2.441       .  S
Zr21         O40   2.489       .  S
Zr21         O48   2.470       .  S
Zr21         O36   2.489       .  S
Zr21         O29   2.382   1_455  S
Zr21        O699   2.404       .  S
Zr21        O700   2.419       .  S
Zr21        O366   2.393   1_554  S
Zr22         O41   2.436       .  S
Zr22        O706   2.435       .  S
Zr22       O1379   2.417       .  S
Zr22        O689   2.402       .  S
Zr22       O2044   2.395       .  S
Zr22       O1373   2.398       .  S
Zr23         O47   2.439       .  S
Zr23        O697   2.436   1_545  S
Zr23         O49   2.409       .  S
Zr23        O692   2.376       .  S
Zr23        O363   2.378       .  S
Zr23        O702   2.403   1_545  S
Zr24         O50   2.436       .  S
Zr24         O51   2.437       .  S
Zr24         O26   2.439       .  S
Zr24       O1360   2.389       .  S
Zr24         O27   2.377       .  S
Zr24         O28   2.373       .  S
Zr24       O1361   2.387   1_455  S
Zr24        O354   2.383   1_554  S
O25        Zr695   2.434       .  S
O25         H734   0.990       .  S
O26          H57   0.990       .  S
O26        H1415   0.990   1_455  S
O27        Zr693   2.406   1_545  S
O27        Zr359   2.380   1_554  S
O28        Zr693   2.422   1_545  S
O28       Zr2038   2.393   1_445  S
O28          H54   0.963       .  S
O29       Zr1366   2.399       .  S
O29        Zr375   2.389   1_554  S
O30         Zr39   2.381   1_455  S
O30        Zr357   2.394       .  S
O30        Zr695   2.402       .  S
O30          H55   0.967       .  S
C31         C290   1.451       .  S
C32        O1359   1.292   1_455  A
C32        C1669   1.440       .  S
C33         O686   1.279   1_545  A
C33         C972   1.429   1_545  S
O34        Zr694   2.434   1_545  S
O34          H70   0.990       .  S
O35       Zr1366   2.417       .  S
O35          C37   1.280   1_655  A
O36          C37   1.293       .  A
C37         C278   1.441       .  S
O38       Zr1383   2.440       .  S
O38          H67   0.990       .  S
Zr39         O43   2.440   1_655  S
Zr39       O1382   2.440       .  S
Zr39       O1722   2.437       .  S
Zr39        O380   2.395   1_655  S
Zr39       O1699   2.378       .  S
Zr39        O365   2.388       .  S
O40          C45   1.292       .  A
O41          H58   0.990       .  S
O41          H73   0.990       .  S
O42       Zr1719   2.436   1_554  S
O42          H59   0.990       .  S
O43          H63   0.990       .  S
O43          H72   0.990       .  S
O44        Zr375   2.383   1_454  S
O44          C45   1.272       .  A
C45         C315   1.443       .  S
O46        Zr693   2.440       .  S
O46          H65   0.990       .  S
O46          H69   0.990       .  S
O47          H61   0.990       .  S
O47          H68   0.990       .  S
O48        C1060   1.291   1_554  A
O49          C52   1.279       .  A
O50          H60   0.990       .  S
O51          H64   0.990       .  S
C52        O1056   1.290   1_545  A
C52         C283   1.432       .  S
H62         O697   0.990   1_545  S
H71        O1370   0.990       .  S
H74         O682   0.991       .  S
Zr75         O76   2.440       .  S
Zr75         O77   2.439       .  S
Zr75         O78   2.469       .  S
Zr75         O81   2.462       .  S
Zr75         O83   2.387       .  S
Zr75         O84   2.387   1_545  S
Zr75         O85   2.409       .  S
Zr75         O86   2.404       .  S
O76         H132   0.991       .  S
O76         H140   0.990       .  S
O77          C97   1.282       .  A
O78          C99   1.289       .  A
O79        Zr761   2.386       .  S
O79          C98   1.274   1_565  A
O80         Zr88   2.385       .  S
O80          C99   1.274       .  A
O81          C98   1.289       .  A
O82        Zr762   2.390   1_545  S
O82          C97   1.274       .  A
O83         Zr88   2.394       .  S
O83        Zr762   2.383   1_545  S
O84        Zr761   2.386       .  S
O84        Zr762   2.375       .  S
O84         H119   0.965       .  S
O85         Zr88   2.399       .  S
O85        Zr105   2.371       .  S
O85         H122   0.965       .  S
O86        Zr105   2.385       .  S
O86        Zr761   2.381   1_545  S
Zr87        O112   2.440       .  S
Zr87        O106   2.440       .  S
Zr87        O114   2.461       .  S
Zr87        O102   2.465       .  S
Zr87         O93   2.396       .  S
Zr87         O94   2.410       .  S
Zr87         O95   2.384       .  S
Zr87         O96   2.389       .  S
Zr88        O107   2.437       .  S
Zr88        O100   2.435       .  S
Zr88        O101   2.394       .  S
Zr88        O766   2.393   1_545  S
Zr88        O767   2.382       .  S
Zr89         O91   2.435       .  S
Zr89        O113   2.440       .  S
Zr89        O115   2.380       .  S
Zr89        O751   2.382       .  S
Zr89         O93   2.381       .  S
Zr89         O96   2.385       .  S
Zr89        O756   2.383       .  S
Zr89        O758   2.385       .  S
Zr90        O116   2.437       .  S
Zr90        O117   2.436       .  S
Zr90        O764   2.436       .  S
Zr90        O754   2.387       .  S
Zr90         O93   2.378       .  S
Zr90         O94   2.381       .  S
Zr90        O755   2.383       .  S
Zr90        O756   2.378       .  S
O91         H128   0.990       .  S
O92        Zr762   2.435       .  S
O92         H137   0.990   1_565  S
O92         H795   0.990       .  S
O94        Zr760   2.394       .  S
O94         H120   0.966       .  S
O95        Zr760   2.385       .  S
O95        Zr777   2.383       .  S
O96        Zr777   2.383       .  S
O96         H121   0.966       .  S
C97         C282   1.421       .  S
C98         C323   1.428       .  S
C99         C301   1.422       .  S
O100        H136   0.990       .  S
O101        C775   1.275   1_545  A
O102        C103   1.288       .  A
C103        O773   1.276       .  A
C103        C274   1.429       .  S
O104       Zr105   2.441       .  S
O104        H133   0.990       .  S
Zr105       O108   2.438       .  S
Zr105       O109   2.442       .  S
Zr105       O782   2.383   1_545  S
Zr105       O767   2.385       .  S
Zr105       O768   2.382   1_545  S
O106        C111   1.282       .  A
O107        H124   0.990       .  S
O107        H139   0.989       .  S
O108        H125   0.990       .  S
O109        H129   0.991       .  S
O109        H810   0.989   1_545  S
O110       Zr777   2.379       .  S
O110        C111   1.272       .  A
C111        C296   1.416       .  S
O112        H131   0.991       .  S
O112        H135   0.990       .  S
O113        H127   0.990       .  S
O113        H134   0.990       .  S
O114        C118   1.288       .  A
O115        C118   1.272       .  A
O116        H126   0.990       .  S
O117        H130   0.991       .  S
C118        C331   1.424       .  S
H123        O764   0.990       .  S
H138        O781   0.989       .  S
Zr141       O142   2.443       .  S
Zr141       O143   2.449       .  S
Zr141       O144   2.443       .  S
Zr141       O147   2.440       .  S
Zr141       O149   2.384   1_554  S
Zr141       O150   2.383       .  S
Zr141       O151   2.415       .  S
Zr141       O152   2.403       .  S
O142        H198   0.990       .  S
O142        H206   0.991       .  S
O143        C163   1.284       .  A
O144        C501   1.283       .  A
O145       Zr155   2.440       .  S
O145        C164   1.285       .  A
O146       Zr154   2.424       .  S
O146        C165   1.282       .  A
O147        C164   1.284       .  A
O148       Zr156   2.406   1_554  S
O148        C163   1.276       .  A
O149       Zr156   2.384       .  S
O149       Zr490   2.402       .  S
O150       Zr155   2.399       .  S
O150       Zr156   2.380   1_554  S
O150        H185   0.965       .  S
O151       Zr171   2.381       .  S
O151       Zr490   2.404   1_554  S
O151        H188   0.964       .  S
O152       Zr155   2.385       .  S
O152       Zr171   2.388       .  S
Zr153       O178   2.443       .  S
Zr153       O172   2.447       .  S
Zr153       O168   2.447       .  S
Zr153       O516   2.438       .  S
Zr153       O160   2.412       .  S
Zr153       O161   2.379       .  S
Zr153       O495   2.399       .  S
Zr153       O498   2.389       .  S
Zr154       O173   2.437       .  S
Zr154       O166   2.435       .  S
Zr154       O167   2.435       .  S
Zr154       O160   2.399       .  S
Zr154       O161   2.396       .  S
Zr154       O485   2.401       .  S
Zr154       O487   2.403       .  S
Zr155       O157   2.436       .  S
Zr155       O179   2.439       .  S
Zr155       O181   2.426       .  S
Zr155       O159   2.391       .  S
Zr155       O162   2.400       .  S
Zr156       O182   2.436   1_556  S
Zr156       O519   2.435       .  S
Zr156       O494   2.437       .  S
Zr156       O159   2.383   1_556  S
Zr156       O496   2.391       .  S
O157        H194   0.990       .  S
O158       Zr492   2.438       .  S
O158        H189   0.990       .  S
O158        H203   0.990       .  S
O159       Zr489   2.404   1_554  S
O160       Zr492   2.382       .  S
O160        H186   0.965       .  S
O161       Zr507   2.384       .  S
O162       Zr171   2.381       .  S
O162       Zr489   2.392   1_554  S
O162        H187   0.965       .  S
C163        C287   1.436       .  S
C164        C306   1.441       .  S
C165        O480   1.284       .  A
C165        C280   1.434       .  S
O166        H202   0.990       .  S
O167        C169   1.283       .  A
O168        C169   1.283       .  A
C169        C336   1.436       .  S
O170       Zr171   2.439       .  S
O170        H199   0.991       .  S
Zr171       O175   2.441       .  S
Zr171       O510   2.437       .  S
Zr171       O512   2.397       .  S
Zr171       O497   2.386   1_554  S
O172        C177   1.283       .  A
O173        H190   0.991       .  S
O173        H205   0.990       .  S
O174       Zr507   2.438       .  S
O174        H191   0.990       .  S
O175        H195   0.990       .  S
O175        H204   0.990       .  S
O176       Zr507   2.413       .  S
O176        C177   1.278       .  A
C177        C311   1.437       .  S
O178        H197   0.991       .  S
O178        H201   0.990       .  S
O179        H193   0.990       .  S
O179        H200   0.990       .  S
O180       Zr489   2.443       .  S
O180        C184   1.284   1_556  A
O181        C184   1.283       .  A
O182        H192   0.990       .  S
O183       Zr492   2.436       .  S
O183        H196   0.990       .  S
C184        C298   1.436       .  S
Zr207       O208   2.441       .  S
Zr207       O209   2.451       .  S
Zr207       O210   2.461       .  S
Zr207       O213   2.458       .  S
Zr207       O215   2.384       .  S
Zr207       O217   2.412       .  S
Zr207       O218   2.405       .  S
Zr207      O1560   2.391   1_455  S
O208        H264   0.990       .  S
O208        H272   0.991       .  S
O209        C229   1.285       .  A
O210        C231   1.287       .  A
O211       Zr221   2.419       .  S
O211        C230   1.281       .  A
O212       Zr220   2.421       .  S
O212        C231   1.280       .  A
O213       C1574   1.288       .  A
O214      Zr1566   2.411   1_455  S
O214        C229   1.279       .  A
O215       Zr220   2.393       .  S
O215      Zr1566   2.379   1_455  S
O216       Zr221   2.397       .  S
O216       Zr222   2.374       .  S
O216      Zr1551   2.392       .  S
O216        H251   0.964       .  S
O217       Zr220   2.398       .  S
O217       Zr237   2.389       .  S
O217        H254   0.965       .  S
O218       Zr237   2.389       .  S
O218      Zr1565   2.391   1_455  S
Zr219       O244   2.440       .  S
Zr219       O246   2.457       .  S
Zr219      O1582   2.455       .  S
Zr219      O1578   2.462       .  S
Zr219       O225   2.410       .  S
Zr219       O228   2.386       .  S
Zr219      O1570   2.409       .  S
Zr219      O1571   2.386       .  S
Zr220       O239   2.437       .  S
Zr220       O232   2.436       .  S
Zr220       O233   2.412       .  S
Zr220       O226   2.397       .  S
Zr220       O227   2.394       .  S
Zr221       O223   2.435       .  S
Zr221       O245   2.438       .  S
Zr221       O247   2.429       .  S
Zr221       O225   2.393       .  S
Zr221       O228   2.390       .  S
Zr221      O1562   2.392       .  S
Zr222       O248   2.434       .  S
Zr222       O249   2.435       .  S
Zr222      O1568   2.438       .  S
Zr222      O1558   2.413       .  S
Zr222       O225   2.397       .  S
Zr222      O1559   2.377       .  S
Zr222      O1570   2.386       .  S
O223        H260   0.990       .  S
O224      Zr1566   2.436       .  S
O224        H255   0.990       .  S
O224        H269   0.990   1_655  S
O226      Zr1563   2.410   1_455  S
O226      Zr1566   2.387   1_455  S
O226        H252   0.966       .  S
O227       Zr237   2.380       .  S
O227      Zr1563   2.387   1_455  S
O228      Zr1581   2.379       .  S
O228        H253   0.967       .  S
C229        C321   1.438       .  S
C230       O1557   1.289       .  A
C230        C286   1.442       .  S
C231        C304   1.441       .  S
O232        H268   0.990       .  S
O233        C235   1.280       .  A
O234      Zr1563   2.475   1_455  S
O234        C235   1.291       .  A
C235        C313   1.443       .  S
O236       Zr237   2.439       .  S
O236        H265   0.990       .  S
Zr237       O240   2.437       .  S
Zr237       O241   2.439       .  S
Zr237       O242   2.403       .  S
Zr237      O1572   2.380   1_455  S
O238      Zr1563   2.457       .  S
O238        C243   1.286   1_655  A
O239        H256   0.991       .  S
O239        H271   0.990       .  S
O240        H257   0.991       .  S
O241        H261   0.990       .  S
O241        H270   0.990       .  S
O242        C243   1.277       .  A
C243        C276   1.435       .  S
O244        H263   0.990       .  S
O244        H267   0.990       .  S
O245        H259   0.990       .  S
O245        H266   0.990       .  S
O246        C250   1.287       .  A
O247        C250   1.282       .  A
O248        H258   0.990       .  S
O249        H262   0.990       .  S
C250        C333   1.446       .  S
C273        C274   1.205       .  T
C275        C276   1.208       .  T
C277        C278   1.211       .  T
C279        C280   1.206       .  T
C281        C282   1.200       .  T
C283        C284   1.205       .  T
C285        C286   1.212       .  T
C287        C288   1.207       .  T
C289        C290   1.218       .  T
C291        H293   1.089       .  S
C291        C964   1.345       .  D
C292        C343   1.502   1_554  S
C292        H630   1.089       .  S
C292        C963   1.352   1_545  D
H294        C628   1.089       .  S
C295        C296   1.198       .  T
C297        C298   1.207       .  T
C299        C300   1.206       .  T
C300        C705   1.431       .  S
C301        C302   1.201       .  T
C303        C304   1.210       .  T
C305        C306   1.210       .  T
C307       C1350   1.532   1_455  S
C307        H309   1.088       .  S
C307        C308   1.350       .  D
C308        C339   1.531   1_554  S
C308        H646   1.088   1_554  S
H310        C644   1.089   1_655  S
C311        C312   1.208       .  T
C313        C314   1.212       .  T
C315        C652   1.213       .  T
C316        C651   1.216       .  T
C317        H319   1.087       .  S
C317        C990   1.357       .  D
C318       C1346   1.535   1_455  S
C318       H1664   1.086   1_445  S
C318        C989   1.357       .  D
H320       C1662   1.086   1_565  S
C321       C1666   1.209       .  T
C322       C1665   1.207       .  T
C323        C324   1.204       .  T
C325       C1376   1.439       .  S
C325        C326   1.210       .  T
C327        H329   1.090       .  S
C327        C328   1.336       .  D
C328        H330   1.090       .  S
C331        C332   1.202       .  T
C333        C334   1.213       .  T
C335        C336   1.208       .  T
C337        C663   1.509       .  S
C337        C668   1.462       .  S
C337        C670   1.485       .  S
C337        C671   1.478       .  S
C338       C1998   1.535       .  S
C338        C658   1.472       .  S
C338        C660   1.464       .  S
C338        C662   1.472       .  S
C339        C648   1.469       .  S
C339        C650   1.474       .  S
C339        C652   1.479   1_556  S
C340        C664   1.510       .  S
C340        C638   1.462       .  S
C340        C639   1.481       .  S
C340        C641   1.479       .  S
C341        C627   1.503       .  S
C341        C631   1.459       .  S
C341        C633   1.466       .  S
C341        C635   1.471       .  S
C342       C1987   1.535       .  S
C342        C621   1.479       .  S
C342        C624   1.472       .  S
C342        C625   1.484       .  S
C343        C615   1.464   1_556  S
C343        C617   1.461       .  S
C343        C620   1.466   1_556  S
C344        C653   1.537       .  S
C344        C609   1.467       .  S
C344        C611   1.474       .  S
C344        C613   1.474       .  S
Zr345       O346   2.441       .  S
Zr345       O351   2.479       .  S
Zr345      O1698   2.388       .  S
Zr345       O691   2.426   1_546  S
Zr345      O2372   2.402       .  S
O346        H402   0.990       .  S
O346       H1082   0.991       .  S
O347        C367   1.292       .  A
O348        C369   1.289       .  A
O349       Zr359   2.429       .  S
O349        C368   1.282       .  A
O350       Zr358   2.419       .  S
O350       C1041   1.281       .  A
O351       C1712   1.292       .  A
O352      Zr1704   2.388       .  S
O352        C367   1.272       .  A
O353      Zr1030   2.402   1_545  S
O353      Zr1704   2.385       .  S
O354      Zr1689   2.391   1_455  S
O354       Zr359   2.400       .  S
O354        H389   0.965       .  S
O355       Zr681   2.427       .  S
O355       Zr358   2.401       .  S
O355      Zr1383   2.370       .  S
O355        H392   0.963       .  S
O356      Zr2361   2.403   1_455  S
O356      Zr1031   2.378       .  S
O356       Zr375   2.382   1_455  S
Zr357      O1054   2.439       .  S
Zr357       O376   2.490       .  S
Zr357       O384   2.468       .  S
Zr357       O372   2.483       .  S
Zr357      O1035   2.401       .  S
Zr357      O1036   2.420       .  S
Zr357       O365   2.382   1_455  S
Zr358       O377   2.435       .  S
Zr358      O1042   2.436       .  S
Zr358      O1715   2.428       .  S
Zr358      O1025   2.405       .  S
Zr358      O2380   2.398       .  S
Zr358      O1709   2.400       .  S
Zr359      O1033   2.436   1_545  S
Zr359       O383   2.440       .  S
Zr359       O385   2.416       .  S
Zr359      O1028   2.374       .  S
Zr359      O1038   2.405   1_545  S
Zr360       O386   2.437       .  S
Zr360       O387   2.435       .  S
Zr360       O362   2.438       .  S
Zr360      O1696   2.393       .  S
Zr360      O1697   2.389   1_455  S
Zr360       O363   2.377       .  S
Zr360       O364   2.380       .  S
O361      Zr1031   2.436       .  S
O361       H1070   0.990       .  S
O362        H393   0.991       .  S
O362       H1751   0.990       .  S
O363      Zr1029   2.405   1_545  S
O364      Zr1029   2.421   1_545  S
O364      Zr2374   2.399   1_445  S
O364        H390   0.964       .  S
O365      Zr1702   2.398       .  S
O366      Zr1031   2.401       .  S
O366       Zr375   2.379   1_455  S
O366        H391   0.967       .  S
C367        C626   1.447       .  S
C368       O1695   1.292   1_455  A
C368       C2005   1.444       .  S
C369       O1022   1.278   1_545  A
C369       C1308   1.429       .  S
O370      Zr1030   2.435   1_545  S
O370        H406   0.990       .  S
O371      Zr1702   2.415       .  S
O371        C373   1.280   1_655  A
O372        C373   1.292       .  A
C373        C614   1.439       .  S
O374      Zr1719   2.439       .  S
O374        H403   0.991       .  S
Zr375      O1718   2.438       .  S
Zr375      O1386   2.438   1_556  S
Zr375       O379   2.439   1_655  S
Zr375      O1363   2.370   1_556  S
O376        C381   1.293       .  A
O377        H394   0.990       .  S
O377        H409   0.990       .  S
O378      Zr1383   2.437       .  S
O378        H395   0.990       .  S
O379        H399   0.990       .  S
O379        H408   0.990       .  S
O380        C381   1.274       .  A
C381        C651   1.449       .  S
O382      Zr1029   2.440       .  S
O382        H401   0.991       .  S
O382        H405   0.990       .  S
O383        H397   0.990       .  S
O383        H404   0.990       .  S
O384        C724   1.290       .  A
O385        C388   1.281   1_556  A
O386        H396   0.990       .  S
O387        H400   0.990       .  S
C388        O720   1.289   1_545  A
C388        C619   1.429       .  S
H398       O1033   0.990   1_545  S
H407       O1706   0.990       .  S
H410       O1018   0.990       .  S
Zr411       O412   2.441       .  S
Zr411       O413   2.443       .  S
Zr411       O414   2.476       .  S
Zr411       O417   2.464       .  S
Zr411       O419   2.389       .  S
Zr411       O420   2.389   1_545  S
Zr411       O421   2.407       .  S
Zr411       O422   2.399       .  S
O412        H468   0.991       .  S
O412        H476   0.990       .  S
O413        C433   1.283       .  A
O414        C435   1.290       .  A
O415      Zr1097   2.386       .  S
O415        C434   1.274   1_565  A
O416       Zr424   2.383       .  S
O416        C435   1.273       .  A
O417        C434   1.289       .  A
O418      Zr1098   2.392   1_545  S
O418        C433   1.274       .  A
O419       Zr424   2.394       .  S
O419      Zr1098   2.384   1_545  S
O420      Zr1097   2.381       .  S
O420      Zr1098   2.378       .  S
O420        H455   0.964       .  S
O421       Zr424   2.397       .  S
O421       Zr441   2.373       .  S
O421        H458   0.963       .  S
O422      Zr1097   2.383   1_545  S
O422       Zr441   2.377       .  S
Zr423       O448   2.440       .  S
Zr423       O442   2.444       .  S
Zr423       O450   2.469       .  S
Zr423       O438   2.472       .  S
Zr423       O429   2.397       .  S
Zr423       O430   2.410       .  S
Zr423       O431   2.382       .  S
Zr423       O432   2.390       .  S
Zr424       O443   2.436       .  S
Zr424       O436   2.436       .  S
Zr424       O437   2.395       .  S
Zr424      O1102   2.393   1_545  S
Zr424      O1103   2.385       .  S
Zr425       O427   2.434       .  S
Zr425       O449   2.439       .  S
Zr425      O1087   2.384       .  S
Zr425       O451   2.380       .  S
Zr425      O1092   2.387       .  S
Zr425      O1094   2.380       .  S
Zr425       O429   2.384       .  S
Zr425       O432   2.384       .  S
Zr426       O452   2.436       .  S
Zr426       O453   2.435       .  S
Zr426      O1100   2.436       .  S
Zr426      O1090   2.389       .  S
Zr426      O1091   2.383       .  S
Zr426      O1092   2.373       .  S
Zr426       O429   2.377       .  S
Zr426       O430   2.382       .  S
O427        H464   0.990       .  S
O428      Zr1098   2.435       .  S
O428       H1131   0.990       .  S
O428        H473   0.990   1_565  S
O430      Zr1096   2.393       .  S
O430        H456   0.965       .  S
O431      Zr1096   2.387       .  S
O431      Zr1113   2.384       .  S
O432      Zr1113   2.382       .  S
O432        H457   0.965       .  S
C433        C618   1.422       .  S
C434        C659   1.427       .  S
C435        C637   1.425       .  S
O436        H472   0.990       .  S
O437       C1111   1.276   1_545  A
O438        C439   1.289       .  A
C439       O1109   1.275       .  A
C439        C610   1.431       .  S
O440       Zr441   2.440       .  S
O440        H469   0.990       .  S
Zr441       O444   2.439       .  S
Zr441       O445   2.442       .  S
Zr441      O1118   2.377   1_545  S
Zr441      O1103   2.385       .  S
Zr441      O1104   2.381   1_545  S
O442        C447   1.283       .  A
O443        H460   0.991       .  S
O443        H475   0.990       .  S
O444        H461   0.990       .  S
O445        H465   0.990       .  S
O445       H1146   0.989   1_545  S
O446      Zr1113   2.382       .  S
O446        C447   1.273       .  A
C447        C632   1.419       .  S
O448        H467   0.991       .  S
O448        H471   0.990       .  S
O449        H463   0.990       .  S
O449        H470   0.990       .  S
O450        C454   1.290       .  A
O451        C454   1.273       .  A
O452        H462   0.990       .  S
O453        H466   0.990       .  S
C454        C667   1.425       .  S
H459       O1100   0.991       .  S
H474       O1117   0.989       .  S
Zr477       O478   2.443       .  S
Zr477       O479   2.462       .  S
Zr477       O480   2.452       .  S
Zr477       O483   2.449       .  S
Zr477       O485   2.385       .  S
Zr477       O486   2.384       .  S
Zr477       O487   2.419       .  S
Zr477       O488   2.406       .  S
O478        H534   0.990       .  S
O478        H542   0.991       .  S
O479        C499   1.287       .  A
O481       Zr491   2.435       .  S
O481        C500   1.284       .  A
O482       Zr490   2.425       .  S
O482        C501   1.282   1_556  A
O483        C500   1.285       .  A
O484       Zr492   2.395       .  S
O484        C499   1.274       .  A
O485       Zr492   2.385       .  S
O486       Zr491   2.396       .  S
O486       Zr492   2.383       .  S
O486        H521   0.966       .  S
O487       Zr507   2.389       .  S
O487        H524   0.963       .  S
O488       Zr491   2.386       .  S
O488       Zr507   2.393       .  S
Zr489       O514   2.443       .  S
Zr489       O508   2.454       .  S
Zr489       O504   2.461       .  S
Zr489       O496   2.413       .  S
Zr489       O497   2.379       .  S
Zr490       O509   2.436       .  S
Zr490       O502   2.436       .  S
Zr490       O503   2.427       .  S
Zr490       O496   2.402       .  S
Zr490       O497   2.397       .  S
Zr491       O493   2.435       .  S
Zr491       O515   2.439       .  S
Zr491       O517   2.426       .  S
Zr491       O495   2.388       .  S
Zr491       O498   2.400       .  S
Zr492       O518   2.435       .  S
Zr492       O495   2.379       .  S
O493        H530   0.990       .  S
O494        H525   0.991       .  S
O494        H539   0.989       .  S
O496        H522   0.964       .  S
O498       Zr507   2.383       .  S
O498        H523   0.967       .  S
C499        C623   1.436       .  S
C500        C642   1.443       .  S
C501        C616   1.429       .  S
O502        H538   0.990       .  S
O503        C505   1.282       .  A
O504        C505   1.286       .  A
C505        C672   1.441       .  S
O506       Zr507   2.440       .  S
O506        H535   0.990       .  S
Zr507       O511   2.442       .  S
O508        C513   1.285       .  A
O509        H526   0.991       .  S
O509        H541   0.989       .  S
O510        H527   0.990       .  S
O511        H531   0.990       .  S
O511        H540   0.990       .  S
O512        C513   1.274   1_554  A
C513        C647   1.433       .  S
O514        H533   0.991       .  S
O514        H537   0.990       .  S
O515        H529   0.990       .  S
O515        H536   0.990       .  S
O516        C520   1.283       .  A
O517        C520   1.283       .  A
O518        H528   0.990       .  S
O519        H532   0.990       .  S
C520        C634   1.433       .  S
Zr543       O544   2.441       .  S
Zr543       O545   2.445       .  S
Zr543       O546   2.467       .  S
Zr543       O549   2.459       .  S
Zr543       O551   2.385       .  S
Zr543      O1896   2.393   1_455  S
Zr543       O553   2.408       .  S
Zr543       O554   2.404       .  S
O544        H600   0.990       .  S
O544        H608   0.990       .  S
O545        C565   1.284       .  A
O546        C567   1.288       .  A
O547       Zr557   2.426       .  S
O547        C566   1.282       .  A
O548       Zr556   2.424       .  S
O548        C567   1.281       .  A
O549       C1910   1.289       .  A
O550      Zr1902   2.411   1_455  S
O550        C565   1.279       .  A
O551       Zr556   2.394       .  S
O551      Zr1902   2.381   1_455  S
O552      Zr1887   2.392       .  S
O552       Zr557   2.393       .  S
O552       Zr558   2.374       .  S
O552        H587   0.964       .  S
O553       Zr556   2.396       .  S
O553       Zr573   2.393       .  S
O553        H590   0.965       .  S
O554      Zr1901   2.393   1_455  S
O554       Zr573   2.388       .  S
Zr555       O580   2.440       .  S
Zr555      O1918   2.455       .  S
Zr555       O582   2.462       .  S
Zr555      O1914   2.469       .  S
Zr555       O561   2.414       .  S
Zr555      O1906   2.412       .  S
Zr555      O1907   2.385       .  S
Zr555       O564   2.388       .  S
Zr556       O575   2.436       .  S
Zr556       O568   2.435       .  S
Zr556       O569   2.413       .  S
Zr556       O562   2.401       .  S
Zr556       O563   2.392       .  S
Zr557       O559   2.435       .  S
Zr557       O581   2.439       .  S
Zr557       O583   2.432       .  S
Zr557      O1898   2.391       .  S
Zr557       O561   2.393       .  S
Zr557       O564   2.392       .  S
Zr558       O584   2.435       .  S
Zr558       O585   2.436       .  S
Zr558      O1904   2.438       .  S
Zr558      O1894   2.416       .  S
Zr558      O1895   2.378       .  S
Zr558       O561   2.399       .  S
Zr558      O1906   2.389       .  S
O559        H596   0.990       .  S
O560      Zr1902   2.437       .  S
O560        H591   0.990       .  S
O560        H605   0.990   1_655  S
O562      Zr1899   2.411   1_455  S
O562      Zr1902   2.386   1_455  S
O562        H588   0.965       .  S
O563      Zr1899   2.388   1_455  S
O563       Zr573   2.377       .  S
O564      Zr1917   2.379       .  S
O564        H589   0.966       .  S
C565        C657   1.435       .  S
C566       O1893   1.288       .  A
C566        C622   1.443       .  S
C567        C640   1.445       .  S
O568        H604   0.990       .  S
O569        C571   1.280       .  A
O570      Zr1899   2.458   1_455  S
O570        C571   1.288       .  A
C571        C649   1.437       .  S
O572       Zr573   2.440       .  S
O572        H601   0.991       .  S
Zr573       O576   2.436       .  S
Zr573       O577   2.440       .  S
Zr573       O578   2.409       .  S
Zr573      O1908   2.379   1_455  S
O574      Zr1899   2.445       .  S
O574        C579   1.284   1_655  A
O575        H592   0.990       .  S
O575        H607   0.990       .  S
O576        H593   0.990       .  S
O577        H597   0.990       .  S
O577        H606   0.990       .  S
O578        C579   1.278       .  A
C579        C612   1.434       .  S
O580        H599   0.991       .  S
O580        H603   0.990       .  S
O581        H595   0.990       .  S
O581        H602   0.990       .  S
O582        C586   1.288       .  A
O583        C586   1.283       .  A
O584        H594   0.990       .  S
O585        H598   0.990       .  S
C586        C669   1.449       .  S
C609        C610   1.205       .  T
C611        C612   1.207       .  T
C613        C614   1.210       .  T
C615        C616   1.204       .  T
C617        C618   1.200       .  T
C619        C620   1.204       .  T
C621        C622   1.212       .  T
C623        C624   1.208       .  T
C625        C626   1.216       .  T
C627        H629   1.088       .  S
C627       C1300   1.350       .  D
C628       C1299   1.344   1_545  D
C631        C632   1.199       .  T
C633        C634   1.205       .  T
C635        C636   1.206       .  T
C636       C1041   1.430       .  S
C637        C638   1.203       .  T
C639        C640   1.213       .  T
C641        C642   1.211       .  T
C643       C1686   1.530   1_455  S
C643        H645   1.088       .  S
C643        C644   1.350       .  D
C647        C648   1.206       .  T
C649        C650   1.209       .  T
C653        H655   1.086       .  S
C653       C1326   1.356       .  D
C654       C1682   1.534   1_455  S
C654       H2000   1.086   1_445  S
C654       C1325   1.358       .  D
H656       C1998   1.086   1_565  S
C657       C2002   1.208       .  T
C658       C2001   1.207       .  T
C659        C660   1.204       .  T
C661       C1712   1.438       .  S
C661        C662   1.209       .  T
C663        H665   1.090       .  S
C663        C664   1.337       .  D
C664        H666   1.090       .  S
C667        C668   1.203       .  T
C669        C670   1.215       .  T
C671        C672   1.211       .  T
C673        C999   1.507       .  S
C673       C1004   1.456       .  S
C673       C1006   1.485       .  S
C673       C1007   1.476       .  S
C674       C2334   1.535       .  S
C674        C994   1.472       .  S
C674        C996   1.462       .  S
C674        C998   1.471       .  S
C675       C1316   1.534       .  S
C675        C984   1.472       .  S
C675        C986   1.478       .  S
C675        C988   1.483       .  S
C676       C1000   1.508       .  S
C676        C974   1.461       .  S
C676        C975   1.482       .  S
C676        C977   1.481       .  S
C677        C963   1.505       .  S
C677        C967   1.462       .  S
C677        C969   1.467       .  S
C677        C971   1.470       .  S
C678       C2323   1.534       .  S
C678        C957   1.476       .  S
C678        C960   1.469       .  S
C678        C961   1.481       .  S
C679       C1300   1.500       .  S
C679        C951   1.461       .  S
C679        C953   1.459       .  S
C679        C956   1.466       .  S
C680        C989   1.537   1_565  S
C680        C945   1.467       .  S
C680        C947   1.475       .  S
C680        C949   1.474       .  S
Zr681       O682   2.442       .  S
Zr681      O1019   2.496       .  S
Zr681      O1020   2.467       .  S
Zr681       O687   2.480       .  S
Zr681      O1025   2.389       .  S
Zr681      O2034   2.386       .  S
Zr681      O1364   2.401       .  S
O682        H738   0.990       .  S
O683      Zr1017   2.487   1_554  S
O683        C703   1.292       .  A
O684      Zr1017   2.469   1_554  S
O684        C705   1.290       .  A
O685       Zr695   2.422       .  S
O685        C704   1.281       .  A
O686       Zr694   2.411       .  S
O687       C2048   1.293       .  A
O688      Zr2040   2.388       .  S
O688        C703   1.273       .  A
O689      Zr1017   2.384   1_554  S
O689      Zr2040   2.387       .  S
O690      Zr2025   2.388   1_455  S
O690       Zr695   2.401       .  S
O690      Zr1032   2.382       .  S
O690        H725   0.965       .  S
O691       Zr694   2.400       .  S
O691      Zr2391   2.375   1_554  S
O691        H728   0.964       .  S
O692      Zr1353   2.399   1_455  S
O692       Zr711   2.378   1_445  S
Zr693       O712   2.499       .  S
Zr693       O720   2.462       .  S
Zr693       O708   2.483       .  S
Zr693       O701   2.379   1_455  S
Zr693      O1038   2.393   1_554  S
Zr694       O713   2.437       .  S
Zr694      O2051   2.428       .  S
Zr694      O1372   2.395   1_565  S
Zr694      O2045   2.396       .  S
Zr695       O719   2.440       .  S
Zr695       O721   2.412       .  S
Zr695      O1035   2.377       .  S
Zr696       O722   2.436       .  S
Zr696       O723   2.434       .  S
Zr696       O698   2.438       .  S
Zr696      O2032   2.391       .  S
Zr696      O2033   2.386   1_455  S
Zr696      O1026   2.381   1_554  S
Zr696       O699   2.376       .  S
Zr696       O700   2.376       .  S
O698        H729   0.991       .  S
O698       H2087   0.990       .  S
O699      Zr1031   2.382   1_554  S
O700      Zr1366   2.398   1_455  S
O700        H726   0.964       .  S
O701      Zr2038   2.401       .  S
O701      Zr1047   2.388   1_554  S
O702      Zr1029   2.393       .  S
O702       Zr711   2.381   1_455  S
O702        H727   0.966       .  S
C703        C962   1.446       .  S
C704       O2031   1.293   1_455  A
C704       C2341   1.443       .  S
O706        H742   0.990       .  S
O707      Zr2038   2.419       .  S
O707        C709   1.280   1_655  A
O708        C709   1.292       .  A
C709        C950   1.440       .  S
O710      Zr2055   2.438       .  S
O710        H739   0.991       .  S
Zr711      O2054   2.440       .  S
Zr711      O2394   2.438       .  S
Zr711       O715   2.439   1_655  S
Zr711      O1052   2.384   1_655  S
Zr711      O2371   2.368       .  S
Zr711      O1037   2.389       .  S
O712        C717   1.294       .  A
O713        H730   0.990       .  S
O713        H745   0.990       .  S
O714      Zr2391   2.438   1_554  S
O714        H731   0.990   1_554  S
O715        H735   0.990       .  S
O715        H744   0.990       .  S
O716      Zr1047   2.391   1_454  S
O716        C717   1.272       .  A
C717        C987   1.453       .  S
O718        H737   0.990       .  S
O718        H741   0.990       .  S
O719        H733   0.990       .  S
O719        H740   0.990       .  S
O721        C724   1.280       .  A
O722        H732   0.990   1_554  S
O723        H736   0.990       .  S
C724        C955   1.429       .  S
H743       O2042   0.990       .  S
Zr747       O748   2.440       .  S
Zr747       O749   2.443       .  S
Zr747       O750   2.472       .  S
Zr747       O753   2.462       .  S
Zr747       O755   2.386       .  S
Zr747       O756   2.388       .  S
Zr747       O757   2.410       .  S
Zr747       O758   2.401       .  S
O748        H804   0.991       .  S
O748        H812   0.990       .  S
O749        C769   1.283       .  A
O750        C771   1.289       .  A
O751        C770   1.273       .  A
O752       Zr760   2.385       .  S
O752        C771   1.273       .  A
O753        C770   1.289       .  A
O754        C769   1.274       .  A
O755       Zr760   2.392       .  S
O756        H791   0.964       .  S
O757       Zr760   2.398       .  S
O757       Zr777   2.374       .  S
O757        H794   0.963       .  S
O758       Zr777   2.383       .  S
Zr759       O784   2.441       .  S
Zr759       O778   2.445       .  S
Zr759       O786   2.459       .  S
Zr759       O774   2.471       .  S
Zr759       O765   2.399       .  S
Zr759       O766   2.408       .  S
Zr759       O767   2.380   1_565  S
Zr759       O768   2.394       .  S
Zr760       O779   2.438       .  S
Zr760       O772   2.435       .  S
Zr760       O773   2.396       .  S
Zr761       O763   2.435       .  S
Zr761       O785   2.441       .  S
Zr761       O787   2.375       .  S
Zr761       O765   2.384       .  S
Zr761       O768   2.386       .  S
Zr762       O788   2.437       .  S
Zr762       O789   2.435       .  S
Zr762       O765   2.377       .  S
Zr762       O766   2.381       .  S
O763        H800   0.990       .  S
O764        H809   0.990       .  S
O766        H792   0.965       .  S
O768        H793   0.965       .  S
C769        C954   1.421       .  S
C770        C995   1.425       .  S
C771        C973   1.424       .  S
O772        H808   0.990       .  S
O774        C775   1.289       .  A
C775        C946   1.430       .  S
O776       Zr777   2.442       .  S
O776        H805   0.990       .  S
Zr777       O780   2.441       .  S
Zr777       O781   2.440       .  S
O778        C783   1.284       .  A
O779        H796   0.991       .  S
O779        H811   0.990       .  S
O780        H797   0.990       .  S
O781        H801   0.990       .  S
O782        C783   1.273       .  A
C783        C968   1.422       .  S
O784        H803   0.991       .  S
O784        H807   0.990       .  S
O785        H799   0.990       .  S
O785        H806   0.990       .  S
O786        C790   1.288       .  A
O787        C790   1.272       .  A
O788        H798   0.990       .  S
O789        H802   0.990       .  S
C790       C1003   1.419       .  S
Zr813       O814   2.442       .  S
Zr813       O815   2.457       .  S
Zr813       O816   2.455       .  S
Zr813       O819   2.452       .  S
Zr813       O821   2.386       .  S
Zr813       O822   2.387       .  S
Zr813       O823   2.417       .  S
Zr813       O824   2.406       .  S
O814        H870   0.990       .  S
O814        H878   0.991       .  S
O815        C835   1.286       .  A
O816       C1173   1.285       .  A
O817       Zr827   2.435       .  S
O817        C836   1.284       .  A
O818       Zr826   2.423       .  S
O818        C837   1.281       .  A
O819        C836   1.286       .  A
O820       Zr828   2.394   1_554  S
O820        C835   1.274       .  A
O821      Zr1162   2.400   1_554  S
O821       Zr828   2.384   1_554  S
O822       Zr827   2.398       .  S
O822       Zr828   2.382   1_554  S
O822        H857   0.965       .  S
O823      Zr1162   2.403   1_554  S
O823       Zr843   2.388       .  S
O823        H860   0.963       .  S
O824       Zr827   2.390       .  S
O824       Zr843   2.394       .  S
Zr825       O850   2.443       .  S
Zr825       O844   2.457       .  S
Zr825      O1188   2.443       .  S
Zr825       O840   2.456       .  S
Zr825      O1167   2.405       .  S
Zr825       O832   2.415       .  S
Zr825       O833   2.380       .  S
Zr825      O1170   2.392       .  S
Zr826       O845   2.436       .  S
Zr826       O838   2.437       .  S
Zr826       O839   2.428       .  S
Zr826      O1157   2.401       .  S
Zr826      O1159   2.405       .  S
Zr826       O832   2.400       .  S
Zr826       O833   2.396       .  S
Zr827       O829   2.436       .  S
Zr827       O851   2.440       .  S
Zr827       O853   2.429       .  S
Zr827       O831   2.387       .  S
Zr827       O834   2.400       .  S
Zr828       O854   2.435   1_556  S
Zr828      O1191   2.435       .  S
Zr828      O1166   2.439       .  S
Zr828       O831   2.380   1_556  S
Zr828      O1168   2.384       .  S
O829        H866   0.990       .  S
O830      Zr1164   2.439       .  S
O830        H861   0.991       .  S
O830        H875   0.990       .  S
O831      Zr1161   2.400   1_554  S
O832      Zr1164   2.387       .  S
O832        H858   0.963       .  S
O833      Zr1179   2.388       .  S
O834      Zr1161   2.388   1_554  S
O834       Zr843   2.383       .  S
O834        H859   0.967       .  S
C835        C959   1.432       .  S
C836        C978   1.445       .  S
C837       O1152   1.282       .  A
C837        C952   1.427       .  S
O838        H874   0.990       .  S
O839        C841   1.282       .  A
O840        C841   1.285       .  A
C841       C1008   1.439       .  S
O842       Zr843   2.441       .  S
O842        H871   0.990       .  S
Zr843      O1182   2.438       .  S
Zr843       O847   2.439       .  S
Zr843      O1184   2.416       .  S
Zr843      O1169   2.384   1_554  S
O844        C849   1.286       .  A
O845        H862   0.991       .  S
O845        H877   0.989       .  S
O846      Zr1179   2.438       .  S
O846        H863   0.990       .  S
O847        H867   0.990       .  S
O847        H876   0.989       .  S
O848      Zr1179   2.399       .  S
O848        C849   1.275       .  A
C849        C983   1.436       .  S
O850        H869   0.991       .  S
O850        H873   0.990       .  S
O851        H865   0.990       .  S
O851        H872   0.990       .  S
O852      Zr1161   2.440       .  S
O852        C856   1.283   1_556  A
O853        C856   1.283       .  A
O854        H864   0.990       .  S
O855      Zr1164   2.437       .  S
O855        H868   0.990       .  S
C856        C970   1.434       .  S
Zr879       O880   2.441       .  S
Zr879       O881   2.444       .  S
Zr879       O882   2.463       .  S
Zr879       O885   2.458       .  S
Zr879       O887   2.385       .  S
Zr879      O2232   2.392   1_455  S
Zr879       O889   2.407       .  S
Zr879       O890   2.401       .  S
O880        H936   0.990       .  S
O880        H944   0.990       .  S
O881        C901   1.284       .  A
O882        C903   1.288       .  A
O883       Zr893   2.424       .  S
O883        C902   1.282       .  A
O884       Zr892   2.428       .  S
O884        C903   1.282       .  A
O885       C2246   1.288       .  A
O886      Zr2238   2.414   1_455  S
O886        C901   1.279       .  A
O887       Zr892   2.394       .  S
O887      Zr2238   2.378   1_455  S
O888      Zr2223   2.392       .  S
O888       Zr893   2.394       .  S
O888       Zr894   2.372       .  S
O888        H923   0.964       .  S
O889       Zr892   2.397       .  S
O889       Zr909   2.391       .  S
O889        H926   0.966       .  S
O890      Zr2237   2.391   1_455  S
O890       Zr909   2.385       .  S
Zr891       O916   2.442       .  S
Zr891      O2254   2.456       .  S
Zr891       O918   2.465       .  S
Zr891      O2250   2.472       .  S
Zr891       O897   2.413       .  S
Zr891      O2242   2.413       .  S
Zr891      O2243   2.386       .  S
Zr891       O900   2.389       .  S
Zr892       O911   2.436       .  S
Zr892       O904   2.435       .  S
Zr892       O905   2.425       .  S
Zr892       O898   2.399       .  S
Zr892       O899   2.392       .  S
Zr893       O895   2.436       .  S
Zr893       O917   2.440       .  S
Zr893       O919   2.430       .  S
Zr893      O2234   2.393       .  S
Zr893       O897   2.393       .  S
Zr893       O900   2.393       .  S
Zr894       O920   2.433       .  S
Zr894       O921   2.435       .  S
Zr894      O2240   2.438       .  S
Zr894      O2230   2.418       .  S
Zr894      O2231   2.381       .  S
Zr894       O897   2.398       .  S
Zr894      O2242   2.387       .  S
O895        H932   0.990       .  S
O896      Zr2238   2.438   1_455  S
O896        H927   0.991   1_455  S
O896        H941   0.990       .  S
O898      Zr2235   2.412   1_455  S
O898      Zr2238   2.384   1_455  S
O898        H924   0.965       .  S
O899      Zr2235   2.388   1_455  S
O899       Zr909   2.379       .  S
O900      Zr2253   2.380       .  S
O900        H925   0.966       .  S
C901        C993   1.436       .  S
C902       O2229   1.287       .  A
C902        C958   1.440       .  S
C903        C976   1.446       .  S
O904        H940   0.990       .  S
O905        C907   1.282       .  A
O906      Zr2235   2.461   1_455  S
O906        C907   1.289       .  A
C907        C985   1.441       .  S
O908       Zr909   2.439       .  S
O908        H937   0.991       .  S
Zr909       O912   2.436       .  S
Zr909       O913   2.439       .  S
Zr909       O914   2.406       .  S
Zr909      O2244   2.379   1_455  S
O910      Zr2235   2.452       .  S
O910        C915   1.285   1_655  A
O911        H928   0.990       .  S
O911        H943   0.990       .  S
O912        H929   0.990       .  S
O913        H933   0.990       .  S
O913        H942   0.990       .  S
O914        C915   1.278       .  A
C915        C948   1.435       .  S
O916        H935   0.991       .  S
O916        H939   0.990       .  S
O917        H931   0.990       .  S
O917        H938   0.990       .  S
O918        C922   1.288       .  A
O919        C922   1.282       .  A
O920        H930   0.990       .  S
O921        H934   0.990       .  S
C922       C1005   1.449       .  S
C945        C946   1.205       .  T
C947        C948   1.208       .  T
C949        C950   1.211       .  T
C951        C952   1.203       .  T
C953        C954   1.199       .  T
C955        C956   1.204       .  T
C957        C958   1.210       .  T
C959        C960   1.206       .  T
C961        C962   1.214       .  T
C963        H965   1.088   1_554  S
C964       C1015   1.504   1_554  S
C964       H1302   1.089   1_554  S
H966       C1300   1.089       .  S
C967        C968   1.201       .  T
C969        C970   1.206       .  T
C971        C972   1.205       .  T
C973        C974   1.202       .  T
C975        C976   1.213       .  T
C977        C978   1.213       .  T
C979       C2022   1.534   1_455  S
C979        H981   1.088       .  S
C979        C980   1.351       .  D
C980       C1011   1.535   1_554  S
C980       H1318   1.088   1_454  S
H982       C1316   1.088   1_655  S
C983        C984   1.208       .  T
C985        C986   1.211       .  T
C987       C1324   1.219       .  T
C988       C1323   1.215       .  T
C989        H991   1.086       .  S
C990       C2018   1.535   1_455  S
C990       H2336   1.086   1_455  S
H992       C2334   1.086       .  S
C993       C2338   1.208       .  T
C994       C2337   1.208       .  T
C995        C996   1.203       .  T
C997       C2048   1.437       .  S
C997        C998   1.209       .  T
C999       H1001   1.090       .  S
C999       C1000   1.335       .  D
C1000      H1002   1.090       .  S
C1003      C1004   1.199       .  T
C1005      C1006   1.215       .  T
C1007      C1008   1.209       .  T
C1009      C1335   1.506       .  S
C1009      C1340   1.459       .  S
C1009      C1342   1.483       .  S
C1009      C1343   1.473       .  S
C1010      C2670   1.534       .  S
C1010      C1330   1.475       .  S
C1010      C1332   1.463       .  S
C1010      C1334   1.475       .  S
C1011      C1320   1.477       .  S
C1011      C1322   1.482       .  S
C1011      C1324   1.489   1_556  S
C1012      C1336   1.505       .  S
C1012      C1310   1.458       .  S
C1012      C1311   1.478       .  S
C1012      C1313   1.480       .  S
C1013      C1299   1.502       .  S
C1013      C1303   1.459       .  S
C1013      C1305   1.470       .  S
C1013      C1307   1.470       .  S
C1014      C2659   1.531       .  S
C1014      C1293   1.480       .  S
C1014      C1296   1.473       .  S
C1014      C1297   1.487       .  S
C1015      C1287   1.469   1_556  S
C1015      C1289   1.460       .  S
C1015      C1292   1.469       .  S
C1016      C1325   1.537   1_565  S
C1016      C1281   1.468       .  S
C1016      C1283   1.474       .  S
C1016      C1285   1.478       .  S
Zr1017     O1018   2.440       .  S
Zr1017     O1023   2.479       .  S
Zr1017     O2370   2.390       .  S
Zr1017     O1700   2.398       .  S
O1018      H1074   0.990       .  S
O1019      C1039   1.294       .  A
O1020      C1041   1.289       .  A
O1021     Zr1031   2.413       .  S
O1021      C1040   1.279       .  A
O1022     Zr1030   2.409       .  S
O1023      C2384   1.292       .  A
O1024     Zr2376   2.391       .  S
O1024      C1039   1.273       .  A
O1025     Zr2376   2.388       .  S
O1026     Zr2361   2.386   1_455  S
O1026     Zr1031   2.401       .  S
O1026      H1061   0.967       .  S
O1027     Zr1030   2.400       .  S
O1027     Zr2055   2.379       .  S
O1027      H1064   0.963       .  S
O1028     Zr1689   2.401   1_455  S
O1028     Zr1047   2.380   1_445  S
Zr1029     O1048   2.492       .  S
Zr1029     O1056   2.468       .  S
Zr1029     O1044   2.485       .  S
Zr1029     O1037   2.380   1_455  S
Zr1030     O1049   2.438       .  S
Zr1030     O2387   2.417       .  S
Zr1030     O1708   2.394   1_565  S
Zr1030     O2381   2.398       .  S
Zr1031     O1055   2.440       .  S
Zr1031     O1057   2.404       .  S
Zr1032     O1058   2.435       .  S
Zr1032     O1059   2.436       .  S
Zr1032     O1034   2.438       .  S
Zr1032     O2368   2.384       .  S
Zr1032     O2369   2.385   1_455  S
Zr1032     O1035   2.371       .  S
Zr1032     O1036   2.373       .  S
O1034      H1065   0.990       .  S
O1034      H2423   0.990       .  S
O1036     Zr1702   2.395   1_455  S
O1036      H1062   0.964       .  S
O1037     Zr2374   2.399       .  S
O1038     Zr1047   2.380   1_455  S
O1038      H1063   0.967       .  S
C1039      C1298   1.451       .  S
C1040      O2367   1.292   1_455  A
C1040      C2677   1.438       .  S
O1042      H1078   0.990       .  S
O1043     Zr2374   2.424       .  S
O1043      C1045   1.282   1_655  A
O1044      C1045   1.293       .  A
C1045      C1286   1.444       .  S
O1046     Zr2391   2.441       .  S
O1046      H1075   0.990       .  S
Zr1047     O2390   2.439       .  S
Zr1047     O2058   2.436   1_556  S
Zr1047     O1051   2.442   1_655  S
Zr1047     O2035   2.379   1_556  S
O1048      C1053   1.293       .  A
O1049      H1066   0.990       .  S
O1049      H1081   0.990       .  S
O1050     Zr2055   2.437       .  S
O1050      H1067   0.990       .  S
O1051      H1071   0.990       .  S
O1051      H1080   0.990       .  S
O1052      C1053   1.272       .  A
C1053      C1323   1.446       .  S
O1054      H1073   0.990       .  S
O1054      H1077   0.991       .  S
O1055      H1069   0.990       .  S
O1055      H1076   0.990       .  S
O1057      C1060   1.278       .  A
O1058      H1068   0.990       .  S
O1059      H1072   0.990       .  S
C1060      C1291   1.430       .  S
H1079      O2378   0.990       .  S
Zr1083     O1084   2.440       .  S
Zr1083     O1085   2.438       .  S
Zr1083     O1086   2.464       .  S
Zr1083     O1089   2.456       .  S
Zr1083     O1091   2.387       .  S
Zr1083     O1092   2.387       .  S
Zr1083     O1093   2.408       .  S
Zr1083     O1094   2.405       .  S
O1084      H1140   0.991       .  S
O1084      H1148   0.990       .  S
O1085      C1105   1.282       .  A
O1086      C1107   1.288       .  A
O1087      C1106   1.273       .  A
O1088     Zr1096   2.387       .  S
O1088      C1107   1.273       .  A
O1089      C1106   1.287       .  A
O1090      C1105   1.274       .  A
O1091     Zr1096   2.392       .  S
O1092      H1127   0.965       .  S
O1093     Zr1096   2.400       .  S
O1093     Zr1113   2.372       .  S
O1093      H1130   0.965       .  S
O1094     Zr1113   2.385       .  S
Zr1095     O1120   2.439       .  S
Zr1095     O1114   2.445       .  S
Zr1095     O1122   2.460       .  S
Zr1095     O1110   2.471       .  S
Zr1095     O1101   2.400       .  S
Zr1095     O1102   2.410       .  S
Zr1095     O1103   2.380   1_565  S
Zr1095     O1104   2.390       .  S
Zr1096     O1115   2.439       .  S
Zr1096     O1108   2.436       .  S
Zr1096     O1109   2.392       .  S
Zr1097     O1099   2.436       .  S
Zr1097     O1121   2.442       .  S
Zr1097     O1123   2.378       .  S
Zr1097     O1101   2.385       .  S
Zr1097     O1104   2.387       .  S
Zr1098     O1124   2.436       .  S
Zr1098     O1125   2.436       .  S
Zr1098     O1101   2.382       .  S
Zr1098     O1102   2.384       .  S
O1099      H1136   0.990       .  S
O1100      H1145   0.990       .  S
O1102      H1128   0.966       .  S
O1104      H1129   0.966       .  S
C1105      C1290   1.421       .  S
C1106      C1331   1.426       .  S
C1107      C1309   1.421       .  S
O1108      H1144   0.990       .  S
O1110      C1111   1.289       .  A
C1111      C1282   1.432       .  S
O1112     Zr1113   2.439       .  S
O1112      H1141   0.990       .  S
Zr1113     O1116   2.438       .  S
Zr1113     O1117   2.444       .  S
O1114      C1119   1.284       .  A
O1115      H1132   0.991       .  S
O1115      H1147   0.990       .  S
O1116      H1133   0.990       .  S
O1117      H1137   0.991       .  S
O1118      C1119   1.272       .  A
C1119      C1304   1.419       .  S
O1120      H1139   0.991       .  S
O1120      H1143   0.990       .  S
O1121      H1135   0.990       .  S
O1121      H1142   0.990       .  S
O1122      C1126   1.288       .  A
O1123      C1126   1.272       .  A
O1124      H1134   0.990       .  S
O1125      H1138   0.990       .  S
C1126      C1339   1.422       .  S
Zr1149     O1150   2.443       .  S
Zr1149     O1151   2.448       .  S
Zr1149     O1152   2.440       .  S
Zr1149     O1155   2.441       .  S
Zr1149     O1157   2.385       .  S
Zr1149     O1158   2.385       .  S
Zr1149     O1159   2.414       .  S
Zr1149     O1160   2.399       .  S
O1150      H1206   0.990       .  S
O1150      H1214   0.991       .  S
O1151      C1171   1.283       .  A
O1153     Zr1163   2.449       .  S
O1153      C1172   1.287       .  A
O1154     Zr1162   2.422       .  S
O1154      C1173   1.281   1_556  A
O1155      C1172   1.284       .  A
O1156     Zr1164   2.411       .  S
O1156      C1171   1.277       .  A
O1157     Zr1164   2.383       .  S
O1158     Zr1163   2.398       .  S
O1158     Zr1164   2.381       .  S
O1158      H1193   0.965       .  S
O1159     Zr1179   2.384       .  S
O1159      H1196   0.965       .  S
O1160     Zr1163   2.383       .  S
O1160     Zr1179   2.385       .  S
Zr1161     O1186   2.443       .  S
Zr1161     O1180   2.451       .  S
Zr1161     O1176   2.450       .  S
Zr1161     O1168   2.413       .  S
Zr1161     O1169   2.380       .  S
Zr1162     O1181   2.437       .  S
Zr1162     O1174   2.435       .  S
Zr1162     O1175   2.430       .  S
Zr1162     O1168   2.399       .  S
Zr1162     O1169   2.397       .  S
Zr1163     O1165   2.434       .  S
Zr1163     O1187   2.438       .  S
Zr1163     O1189   2.427       .  S
Zr1163     O1167   2.391       .  S
Zr1163     O1170   2.402       .  S
Zr1164     O1190   2.435       .  S
Zr1164     O1167   2.387       .  S
O1165      H1202   0.990       .  S
O1166      H1197   0.990       .  S
O1166      H1211   0.990       .  S
O1168      H1194   0.965       .  S
O1170     Zr1179   2.382       .  S
O1170      H1195   0.965       .  S
C1171      C1295   1.437       .  S
C1172      C1314   1.445       .  S
C1173      C1288   1.435       .  S
O1174      H1210   0.990       .  S
O1175      C1177   1.282       .  A
O1176      C1177   1.284       .  A
C1177      C1344   1.436       .  S
O1178     Zr1179   2.442       .  S
O1178      H1207   0.991       .  S
Zr1179     O1183   2.443       .  S
O1180      C1185   1.284       .  A
O1181      H1198   0.991       .  S
O1181      H1213   0.989       .  S
O1182      H1199   0.990       .  S
O1183      H1203   0.990       .  S
O1183      H1212   0.989       .  S
O1184      C1185   1.278   1_554  A
C1185      C1319   1.441       .  S
O1186      H1205   0.991       .  S
O1186      H1209   0.990       .  S
O1187      H1201   0.990       .  S
O1187      H1208   0.990       .  S
O1188      C1192   1.284       .  A
O1189      C1192   1.283       .  A
O1190      H1200   0.990       .  S
O1191      H1204   0.990       .  S
C1192      C1306   1.436       .  S
Zr1215     O1216   2.443       .  S
Zr1215     O1217   2.447       .  S
Zr1215     O1218   2.458       .  S
Zr1215     O1221   2.450       .  S
Zr1215     O1223   2.381       .  S
Zr1215     O2568   2.390   1_455  S
Zr1215     O1225   2.409       .  S
Zr1215     O1226   2.407       .  S
O1216      H1272   0.990       .  S
O1216      H1280   0.991       .  S
O1217      C1237   1.284       .  A
O1218      C1239   1.286       .  A
O1219     Zr1229   2.417       .  S
O1219      C1238   1.281       .  A
O1220     Zr1228   2.424       .  S
O1220      C1239   1.281       .  A
O1221      C2582   1.287       .  A
O1222     Zr2574   2.414   1_455  S
O1222      C1237   1.279       .  A
O1223     Zr1228   2.392       .  S
O1223     Zr2574   2.377   1_455  S
O1224     Zr2559   2.392       .  S
O1224     Zr1229   2.397       .  S
O1224     Zr1230   2.375       .  S
O1224      H1259   0.964       .  S
O1225     Zr1228   2.397       .  S
O1225     Zr1245   2.389       .  S
O1225      H1262   0.965       .  S
O1226     Zr2573   2.393   1_455  S
O1226     Zr1245   2.387       .  S
Zr1227     O1252   2.443       .  S
Zr1227     O2590   2.457       .  S
Zr1227     O1254   2.463       .  S
Zr1227     O2586   2.467       .  S
Zr1227     O1233   2.412       .  S
Zr1227     O2578   2.413       .  S
Zr1227     O2579   2.386       .  S
Zr1227     O1236   2.388       .  S
Zr1228     O1247   2.436       .  S
Zr1228     O1240   2.434       .  S
Zr1228     O1241   2.415       .  S
Zr1228     O1234   2.400       .  S
Zr1228     O1235   2.393       .  S
Zr1229     O1231   2.436       .  S
Zr1229     O1253   2.438       .  S
Zr1229     O1255   2.424       .  S
Zr1229     O2570   2.391       .  S
Zr1229     O1233   2.393       .  S
Zr1229     O1236   2.391       .  S
Zr1230     O1256   2.434       .  S
Zr1230     O1257   2.436       .  S
Zr1230     O2576   2.438       .  S
Zr1230     O2566   2.418       .  S
Zr1230     O2567   2.377       .  S
Zr1230     O1233   2.397       .  S
Zr1230     O2578   2.389       .  S
O1231      H1268   0.990       .  S
O1232     Zr2574   2.437       .  S
O1232      H1263   0.990       .  S
O1232      H1277   0.990   1_655  S
O1234     Zr2571   2.411   1_455  S
O1234     Zr2574   2.387   1_455  S
O1234      H1260   0.966       .  S
O1235     Zr2571   2.387   1_455  S
O1235     Zr1245   2.381       .  S
O1236     Zr2589   2.381       .  S
O1236      H1261   0.966       .  S
C1237      C1329   1.439       .  S
C1238      O2565   1.290       .  A
C1238      C1294   1.444       .  S
C1239      C1312   1.442       .  S
O1240      H1276   0.990       .  S
O1241      C1243   1.280       .  A
O1242     Zr2571   2.472   1_455  S
O1242      C1243   1.291       .  A
C1243      C1321   1.444       .  S
O1244     Zr1245   2.440       .  S
O1244      H1273   0.990       .  S
Zr1245     O1248   2.436       .  S
Zr1245     O1249   2.440       .  S
Zr1245     O1250   2.402       .  S
Zr1245     O2580   2.382   1_455  S
O1246     Zr2571   2.452       .  S
O1246      C1251   1.285   1_655  A
O1247      H1264   0.991       .  S
O1247      H1279   0.990       .  S
O1248      H1265   0.990       .  S
O1249      H1269   0.990       .  S
O1249      H1278   0.990       .  S
O1250      C1251   1.277       .  A
C1251      C1284   1.433       .  S
O1252      H1271   0.991       .  S
O1252      H1275   0.990       .  S
O1253      H1267   0.990       .  S
O1253      H1274   0.990       .  S
O1254      C1258   1.288       .  A
O1255      C1258   1.281       .  A
O1256      H1266   0.990       .  S
O1257      H1270   0.990       .  S
C1258      C1341   1.447       .  S
C1281      C1282   1.206       .  T
C1283      C1284   1.207       .  T
C1285      C1286   1.213       .  T
C1287      C1288   1.207       .  T
C1289      C1290   1.200       .  T
C1291      C1292   1.205       .  T
C1293      C1294   1.212       .  T
C1295      C1296   1.208       .  T
C1297      C1298   1.217       .  T
C1299      H1301   1.089   1_565  S
C1303      C1304   1.199       .  T
C1305      C1306   1.207       .  T
C1307      C1308   1.205   1_565  T
C1309      C1310   1.200       .  T
C1311      C1312   1.211       .  T
C1313      C1314   1.212       .  T
C1315      C2358   1.535   1_455  S
C1315      H1317   1.088       .  S
C1315      C1316   1.351       .  D
C1319      C1320   1.210       .  T
C1321      C1322   1.213       .  T
C1325      H1327   1.086       .  S
C1326      C2354   1.535   1_455  S
C1326      H2672   1.087   1_455  S
H1328      C2670   1.086       .  S
C1329      C2674   1.209       .  T
C1330      C2673   1.210       .  T
C1331      C1332   1.203       .  T
C1333      C2384   1.440       .  S
C1333      C1334   1.210       .  T
C1335      H1337   1.090       .  S
C1335      C1336   1.335       .  D
C1336      H1338   1.090       .  S
C1339      C1340   1.201       .  T
C1341      C1342   1.213       .  T
C1343      C1344   1.208       .  T
C1345      C1671   1.508       .  S
C1345      C1676   1.457       .  S
C1345      C1678   1.482       .  S
C1345      C1679   1.473       .  S
C1346      C1666   1.475   1_655  S
C1346      C1668   1.463       .  S
C1346      C1670   1.474   1_655  S
C1347      C1988   1.536       .  S
C1347      C1656   1.473       .  S
C1347      C1658   1.479       .  S
C1347      C1660   1.484       .  S
C1348      C1672   1.508       .  S
C1348      C1646   1.461       .  S
C1348      C1647   1.479       .  S
C1348      C1649   1.478       .  S
C1349      C1635   1.504       .  S
C1349      C1639   1.454       .  S
C1349      C1641   1.470       .  S
C1349      C1643   1.470       .  S
C1350      C1629   1.478       .  S
C1350      C1632   1.470       .  S
C1350      C1633   1.485       .  S
C1351      C1972   1.510       .  S
C1351      C1623   1.466       .  S
C1351      C1625   1.459       .  S
C1351      C1628   1.473       .  S
C1352      C1661   1.539       .  S
C1352      C1617   1.468       .  S
C1352      C1619   1.475       .  S
C1352      C1621   1.476       .  S
Zr1353     O1354   2.440       .  S
Zr1353     O1691   2.489       .  S
Zr1353     O1692   2.473       .  S
Zr1353     O1359   2.478       .  S
Zr1353     O1697   2.386       .  S
Zr1353     O2371   2.423   1_545  S
O1354      H1410   0.990       .  S
O1354      H2090   0.990       .  S
O1355     Zr1689   2.495   1_554  S
O1355      C1375   1.293   1_655  A
O1356     Zr1689   2.474   1_554  S
O1356      C1377   1.290       .  A
O1357     Zr1367   2.421       .  S
O1357      C1376   1.281       .  A
O1358     Zr1366   2.417       .  S
O1358      C2049   1.280       .  A
O1360      C1375   1.273       .  A
O1361     Zr1689   2.385   1_554  S
O1361     Zr2038   2.403   1_545  S
O1362     Zr1367   2.402       .  S
O1362     Zr1704   2.379       .  S
O1362      H1397   0.967       .  S
O1363     Zr2361   2.426   1_554  S
O1363     Zr1366   2.397       .  S
O1363      H1400   0.962       .  S
O1364     Zr2039   2.374       .  S
O1364     Zr1383   2.378       .  S
Zr1365     O2062   2.440       .  S
Zr1365     O1384   2.490       .  S
Zr1365     O1392   2.464       .  S
Zr1365     O1380   2.486       .  S
Zr1365     O2043   2.404       .  S
Zr1365     O2044   2.419       .  S
Zr1365     O1373   2.380       .  S
Zr1365     O1710   2.394   1_554  S
Zr1366     O1385   2.437       .  S
Zr1366     O2050   2.437       .  S
Zr1366     O2033   2.403       .  S
Zr1367     O2041   2.435   1_545  S
Zr1367     O1391   2.440       .  S
Zr1367     O1393   2.417       .  S
Zr1367     O2036   2.379       .  S
Zr1367     O1707   2.376       .  S
Zr1367     O2046   2.404   1_545  S
Zr1368     O1394   2.436       .  S
Zr1368     O1395   2.436       .  S
Zr1368     O1370   2.439       .  S
Zr1368     O1698   2.380   1_554  S
Zr1368     O1371   2.373       .  S
Zr1368     O1372   2.377       .  S
O1369     Zr2039   2.435       .  S
O1369      H2078   0.990       .  S
O1370      H1401   0.990       .  S
O1371     Zr2037   2.402   1_545  S
O1371     Zr1703   2.377   1_554  S
O1372     Zr2037   2.422   1_545  S
O1372      H1398   0.963       .  S
O1373     Zr1719   2.390   1_554  S
O1374     Zr1701   2.391       .  S
O1374     Zr2039   2.399       .  S
O1374     Zr1383   2.379       .  S
O1374      H1399   0.966       .  S
C1375      C1634   1.449   1_455  S
C1377      O2030   1.279   1_545  A
C1377      C2316   1.431   1_545  S
O1378     Zr2038   2.437   1_545  S
O1378      H1414   0.990       .  S
O1379      C1381   1.280       .  A
O1380      C1381   1.293       .  A
C1381      C1622   1.441       .  S
O1382      H1411   0.990       .  S
Zr1383     O1387   2.441       .  S
Zr1383     O1724   2.385       .  S
Zr1383     O1709   2.390       .  S
O1384      C1389   1.292       .  A
O1385      H1402   0.990       .  S
O1385      H1417   0.990       .  S
O1386      H1403   0.990       .  S
O1387      H1407   0.990       .  S
O1387      H1416   0.990       .  S
O1388     Zr1719   2.386       .  S
O1388      C1389   1.272   1_556  A
C1389      C1659   1.446       .  S
O1390     Zr2037   2.440       .  S
O1390      H1409   0.990       .  S
O1390      H1413   0.990       .  S
O1391      H1405   0.990       .  S
O1391      H1412   0.990       .  S
O1392      C2404   1.290   1_554  A
O1393      C1396   1.281       .  A
O1394      H1404   0.990       .  S
O1395      H1408   0.990       .  S
C1396      O2400   1.290   1_545  A
C1396      C1627   1.433       .  S
H1406      O2041   0.990   1_545  S
H1418      O2026   0.991       .  S
Zr1419     O1420   2.441       .  S
Zr1419     O1421   2.445       .  S
Zr1419     O1422   2.469       .  S
Zr1419     O1425   2.459       .  S
Zr1419     O1427   2.386       .  S
Zr1419     O1428   2.389   1_545  S
Zr1419     O1429   2.411       .  S
Zr1419     O1430   2.404       .  S
O1420      H1476   0.991       .  S
O1420      H1484   0.990       .  S
O1421      C1441   1.284       .  A
O1422      C1443   1.289       .  A
O1423     Zr2105   2.391       .  S
O1423      C1442   1.274   1_565  A
O1424     Zr1432   2.386       .  S
O1424      C1443   1.273       .  A
O1425      C1442   1.288       .  A
O1426     Zr2106   2.389   1_545  S
O1426      C1441   1.274       .  A
O1427     Zr1432   2.392       .  S
O1427     Zr2106   2.383   1_545  S
O1428     Zr2105   2.386       .  S
O1428     Zr2106   2.377       .  S
O1428      H1463   0.965       .  S
O1429     Zr1432   2.400       .  S
O1429     Zr1449   2.375       .  S
O1429      H1466   0.964       .  S
O1430     Zr2105   2.383   1_545  S
O1430     Zr1449   2.384       .  S
Zr1431     O1456   2.439       .  S
Zr1431     O1450   2.435       .  S
Zr1431     O1458   2.450       .  S
Zr1431     O1446   2.472       .  S
Zr1431     O1437   2.399       .  S
Zr1431     O1438   2.406       .  S
Zr1431     O1439   2.382       .  S
Zr1431     O1440   2.393       .  S
Zr1432     O1451   2.439       .  S
Zr1432     O1444   2.437       .  S
Zr1432     O1445   2.395       .  S
Zr1432     O2110   2.393   1_545  S
Zr1432     O2111   2.387       .  S
Zr1433     O1435   2.434       .  S
Zr1433     O1457   2.440       .  S
Zr1433     O2095   2.389       .  S
Zr1433     O1459   2.382       .  S
Zr1433     O2100   2.384       .  S
Zr1433     O2102   2.384       .  S
Zr1433     O1437   2.387       .  S
Zr1433     O1440   2.384       .  S
Zr1434     O1460   2.436       .  S
Zr1434     O1461   2.437       .  S
Zr1434     O2108   2.438       .  S
Zr1434     O2098   2.384       .  S
Zr1434     O2099   2.380       .  S
Zr1434     O2100   2.379       .  S
Zr1434     O1437   2.379       .  S
Zr1434     O1438   2.381       .  S
O1435      H1472   0.990       .  S
O1436     Zr2106   2.436       .  S
O1436      H2139   0.990       .  S
O1436      H1481   0.990   1_565  S
O1438     Zr2104   2.393       .  S
O1438      H1464   0.966       .  S
O1439     Zr2104   2.384       .  S
O1439     Zr2121   2.385       .  S
O1440     Zr2121   2.381       .  S
O1440      H1465   0.967       .  S
C1441      C1626   1.423       .  S
C1442      C1667   1.427       .  S
C1443      C1645   1.423       .  S
O1444      H1480   0.990       .  S
O1445      C2119   1.275   1_545  A
O1446      C1447   1.289       .  A
C1447      O2117   1.275       .  A
C1447      C1618   1.432       .  S
O1448     Zr1449   2.442       .  S
O1448      H1477   0.990       .  S
Zr1449     O1452   2.439       .  S
Zr1449     O1453   2.444       .  S
Zr1449     O2126   2.380   1_545  S
Zr1449     O2111   2.386       .  S
Zr1449     O2112   2.381   1_545  S
O1450      C1455   1.281       .  A
O1451      H1468   0.991       .  S
O1451      H1483   0.990       .  S
O1452      H1469   0.990       .  S
O1453      H1473   0.990       .  S
O1453      H2154   0.989   1_545  S
O1454     Zr2121   2.375       .  S
O1454      C1455   1.272       .  A
C1455      C1640   1.412       .  S
O1456      H1475   0.991       .  S
O1456      H1479   0.990       .  S
O1457      H1471   0.990       .  S
O1457      H1478   0.990       .  S
O1458      C1462   1.286       .  A
O1459      C1462   1.273       .  A
O1460      H1470   0.990       .  S
O1461      H1474   0.990       .  S
C1462      C1675   1.420       .  S
H1467      O2108   0.991       .  S
H1482      O2125   0.989       .  S
Zr1485     O1486   2.443       .  S
Zr1485     O1487   2.447       .  S
Zr1485     O1488   2.450       .  S
Zr1485     O1491   2.434       .  S
Zr1485     O1493   2.380   1_554  S
Zr1485     O1494   2.390       .  S
Zr1485     O1495   2.413       .  S
Zr1485     O1496   2.404       .  S
O1486      H1542   0.990       .  S
O1486      H1550   0.991       .  S
O1487      C1507   1.283       .  A
O1488      C1845   1.284       .  A
O1489     Zr1499   2.447       .  S
O1489      C1508   1.286       .  A
O1490     Zr1498   2.420       .  S
O1490      C1509   1.280       .  A
O1491      C1508   1.283       .  A
O1492     Zr1500   2.403   1_554  S
O1492      C1507   1.276       .  A
O1493     Zr1834   2.398       .  S
O1493     Zr1500   2.386       .  S
O1494     Zr1499   2.400       .  S
O1494     Zr1500   2.381   1_554  S
O1494      H1529   0.965       .  S
O1495     Zr1834   2.400   1_554  S
O1495     Zr1515   2.386       .  S
O1495      H1532   0.964       .  S
O1496     Zr1499   2.387       .  S
O1496     Zr1515   2.388       .  S
Zr1497     O1522   2.443       .  S
Zr1497     O1516   2.454       .  S
Zr1497     O1860   2.438       .  S
Zr1497     O1512   2.459       .  S
Zr1497     O1839   2.404       .  S
Zr1497     O1504   2.411       .  S
Zr1497     O1505   2.377       .  S
Zr1497     O1842   2.392       .  S
Zr1498     O1517   2.437       .  S
Zr1498     O1510   2.436       .  S
Zr1498     O1511   2.421       .  S
Zr1498     O1829   2.397       .  S
Zr1498     O1831   2.403       .  S
Zr1498     O1504   2.401       .  S
Zr1498     O1505   2.398       .  S
Zr1499     O1501   2.435       .  S
Zr1499     O1523   2.439       .  S
Zr1499     O1525   2.436       .  S
Zr1499     O1503   2.388       .  S
Zr1499     O1506   2.400       .  S
Zr1500     O1526   2.436   1_556  S
Zr1500     O1863   2.436       .  S
Zr1500     O1838   2.437       .  S
Zr1500     O1503   2.381   1_556  S
Zr1500     O1840   2.387       .  S
O1501      H1538   0.990       .  S
O1502     Zr1836   2.439       .  S
O1502      H1533   0.991       .  S
O1502      H1547   0.990       .  S
O1503     Zr1833   2.404   1_554  S
O1504     Zr1836   2.390       .  S
O1504      H1530   0.964       .  S
O1505     Zr1851   2.384       .  S
O1506     Zr1833   2.388   1_554  S
O1506     Zr1515   2.384       .  S
O1506      H1531   0.965       .  S
C1507      C1631   1.433       .  S
C1508      C1650   1.441       .  S
C1509      O1824   1.284       .  A
C1509      C1624   1.432       .  S
O1510      H1546   0.990       .  S
O1511      C1513   1.281       .  A
O1512      C1513   1.286       .  A
C1513      C1680   1.437       .  S
O1514     Zr1515   2.440       .  S
O1514      H1543   0.990       .  S
Zr1515     O1854   2.437       .  S
Zr1515     O1519   2.442       .  S
Zr1515     O1856   2.405       .  S
Zr1515     O1841   2.384   1_554  S
O1516      C1521   1.285       .  A
O1517      H1534   0.991       .  S
O1517      H1549   0.990       .  S
O1518     Zr1851   2.436       .  S
O1518      H1535   0.990       .  S
O1519      H1539   0.990       .  S
O1519      H1548   0.990       .  S
O1520     Zr1851   2.404       .  S
O1520      C1521   1.276       .  A
C1521      C1655   1.437       .  S
O1522      H1541   0.991       .  S
O1522      H1545   0.990       .  S
O1523      H1537   0.990       .  S
O1523      H1544   0.990       .  S
O1524     Zr1833   2.443       .  S
O1524      C1528   1.284   1_556  A
O1525      C1528   1.285       .  A
O1526      H1536   0.990       .  S
O1527     Zr1836   2.436       .  S
O1527      H1540   0.990       .  S
C1528      C1642   1.438       .  S
Zr1551     O1552   2.440       .  S
Zr1551     O1553   2.444       .  S
Zr1551     O1554   2.465       .  S
Zr1551     O1557   2.459       .  S
Zr1551     O1559   2.382       .  S
Zr1551     O1561   2.408       .  S
Zr1551     O1562   2.402       .  S
O1552      H1608   0.990       .  S
O1552      H1616   0.991       .  S
O1553      C1573   1.283       .  A
O1554      C1575   1.288       .  A
O1555     Zr1565   2.421       .  S
O1555      C1574   1.281   1_655  A
O1556     Zr1564   2.425       .  S
O1556      C1575   1.281       .  A
O1558      C1573   1.279       .  A
O1559     Zr1564   2.394       .  S
O1560     Zr1565   2.393       .  S
O1560     Zr1566   2.375       .  S
O1560      H1595   0.964       .  S
O1561     Zr1564   2.399       .  S
O1561     Zr1581   2.389       .  S
O1561      H1598   0.965       .  S
O1562     Zr1581   2.387       .  S
Zr1563     O1588   2.440       .  S
Zr1563     O1590   2.467       .  S
Zr1563     O1569   2.410       .  S
Zr1563     O1572   2.388       .  S
Zr1564     O1583   2.435       .  S
Zr1564     O1576   2.436       .  S
Zr1564     O1577   2.422       .  S
Zr1564     O1570   2.396       .  S
Zr1564     O1571   2.393       .  S
Zr1565     O1567   2.435       .  S
Zr1565     O1589   2.439       .  S
Zr1565     O1591   2.421       .  S
Zr1565     O1569   2.392       .  S
Zr1565     O1572   2.391       .  S
Zr1566     O1592   2.434       .  S
Zr1566     O1593   2.435       .  S
Zr1566     O1569   2.393       .  S
O1567      H1604   0.990       .  S
O1568      H1599   0.990       .  S
O1568      H1613   0.990       .  S
O1570      H1596   0.966       .  S
O1571     Zr1581   2.379       .  S
O1572      H1597   0.966       .  S
C1573      C1665   1.435       .  S
C1574      C1630   1.442       .  S
C1575      C1648   1.444       .  S
O1576      H1612   0.990       .  S
O1577      C1579   1.282       .  A
O1578      C1579   1.289       .  A
C1579      C1657   1.442       .  S
O1580     Zr1581   2.439       .  S
O1580      H1609   0.991       .  S
Zr1581     O1584   2.437       .  S
Zr1581     O1585   2.439       .  S
Zr1581     O1586   2.406       .  S
O1582      C1587   1.286       .  A
O1583      H1600   0.990       .  S
O1583      H1615   0.990       .  S
O1584      H1601   0.990       .  S
O1585      H1605   0.990       .  S
O1585      H1614   0.990       .  S
O1586      C1587   1.278       .  A
C1587      C1620   1.435       .  S
O1588      H1607   0.990       .  S
O1588      H1611   0.990       .  S
O1589      H1603   0.990       .  S
O1589      H1610   0.990       .  S
O1590      C1594   1.289       .  A
O1591      C1594   1.281       .  A
O1592      H1602   0.990       .  S
O1593      H1606   0.990       .  S
C1594      C1677   1.446       .  S
C1617      C1618   1.206       .  T
C1619      C1620   1.208       .  T
C1621      C1622   1.212       .  T
C1623      C1624   1.206       .  T
C1625      C1626   1.201       .  T
C1627      C1628   1.206       .  T
C1629      C1630   1.211   1_655  T
C1631      C1632   1.206       .  T
C1633      C1634   1.216       .  T
C1635      H1637   1.089       .  S
C1635      C2308   1.343       .  D
C1636      C1687   1.510   1_554  S
C1636      H1974   1.085       .  S
C1636      C2307   1.358   1_545  D
H1638      C1972   1.085       .  S
C1639      C1640   1.196       .  T
C1641      C1642   1.208       .  T
C1643      C1644   1.205       .  T
C1644      C2049   1.429       .  S
C1645      C1646   1.202       .  T
C1647      C1648   1.212       .  T
C1649      C1650   1.210       .  T
C1651      H1653   1.088       .  S
C1651      C1652   1.351       .  D
C1652      C1683   1.534   1_554  S
C1652      H1990   1.089   1_554  S
H1654      C1988   1.088       .  S
C1655      C1656   1.208       .  T
C1657      C1658   1.212       .  T
C1659      C1996   1.214       .  T
C1660      C1995   1.216       .  T
C1661      H1663   1.086       .  S
C1661      C2334   1.358       .  D
C1662      C2333   1.357   1_545  D
C1667      C1668   1.203       .  T
C1669      C1670   1.210       .  T
C1671      H1673   1.090       .  S
C1671      C1672   1.336       .  D
C1672      H1674   1.090       .  S
C1675      C1676   1.199       .  T
C1677      C1678   1.213       .  T
C1679      C1680   1.208       .  T
C1681      C2007   1.506       .  S
C1681      C2012   1.453       .  S
C1681      C2014   1.481       .  S
C1681      C2015   1.472       .  S
C1682      C2002   1.473   1_655  S
C1682      C2004   1.466       .  S
C1682      C2006   1.478   1_655  S
C1683      C1992   1.474       .  S
C1683      C1994   1.478       .  S
C1683      C1996   1.481   1_556  S
C1684      C2008   1.506       .  S
C1684      C1982   1.461       .  S
C1684      C1983   1.477       .  S
C1684      C1985   1.480       .  S
C1685      C1971   1.504       .  S
C1685      C1975   1.451       .  S
C1685      C1977   1.469       .  S
C1685      C1979   1.469       .  S
C1686      C1965   1.477       .  S
C1686      C1968   1.472       .  S
C1686      C1969   1.484       .  S
C1687      C1959   1.467   1_556  S
C1687      C1961   1.460       .  S
C1687      C1964   1.472       .  S
C1688      C1997   1.537       .  S
C1688      C1953   1.468       .  S
C1688      C1955   1.476       .  S
C1688      C1957   1.477       .  S
Zr1689     O1690   2.440       .  S
Zr1689     O1695   2.477       .  S
Zr1689     O2035   2.425   1_546  S
O1690      H1746   0.990       .  S
O1690      H2426   0.991       .  S
O1691      C1711   1.292   1_655  A
O1692      C1713   1.291       .  A
O1693     Zr1703   2.418       .  S
O1693      C1712   1.280       .  A
O1694     Zr1702   2.409       .  S
O1694      C2385   1.278       .  A
O1696      C1711   1.273       .  A
O1697     Zr2374   2.405   1_545  S
O1698     Zr1703   2.402       .  S
O1698      H1733   0.965       .  S
O1699     Zr2025   2.427       .  S
O1699     Zr1702   2.397       .  S
O1699      H1736   0.962       .  S
O1700     Zr2375   2.375       .  S
O1700     Zr1719   2.376       .  S
Zr1701     O2398   2.442       .  S
Zr1701     O1720   2.492       .  S
Zr1701     O1728   2.463       .  S
Zr1701     O1716   2.478       .  S
Zr1701     O2379   2.403       .  S
Zr1701     O2380   2.424       .  S
Zr1701     O1709   2.380       .  S
Zr1702     O1721   2.436       .  S
Zr1702     O2386   2.435       .  S
Zr1702     O2369   2.404       .  S
Zr1703     O2377   2.435   1_545  S
Zr1703     O1727   2.440       .  S
Zr1703     O1729   2.412       .  S
Zr1703     O2372   2.375       .  S
Zr1703     O2382   2.402   1_545  S
Zr1704     O1730   2.434       .  S
Zr1704     O1731   2.435       .  S
Zr1704     O1706   2.439       .  S
Zr1704     O1707   2.371       .  S
Zr1704     O1708   2.378       .  S
O1705     Zr2375   2.433       .  S
O1705      H2414   0.990       .  S
O1706      H1737   0.991       .  S
O1707     Zr2373   2.400   1_545  S
O1708     Zr2373   2.420   1_545  S
O1708      H1734   0.964       .  S
O1710     Zr2375   2.402       .  S
O1710     Zr1719   2.382       .  S
O1710      H1735   0.967       .  S
C1711      C1970   1.449   1_455  S
C1713      O2366   1.280   1_545  A
C1713      C2652   1.433   1_545  S
O1714     Zr2374   2.435   1_545  S
O1714      H1750   0.990       .  S
O1715      C1717   1.282       .  A
O1716      C1717   1.291       .  A
C1717      C1958   1.442       .  S
O1718      H1747   0.991       .  S
Zr1719     O1723   2.441       .  S
O1720      C1725   1.293       .  A
O1721      H1738   0.990       .  S
O1721      H1753   0.990       .  S
O1722      H1739   0.990       .  S
O1723      H1743   0.990       .  S
O1723      H1752   0.990       .  S
O1724      C1725   1.272       .  A
C1725      C1995   1.447       .  S
O1726     Zr2373   2.440       .  S
O1726      H1745   0.990       .  S
O1726      H1749   0.990       .  S
O1727      H1741   0.990       .  S
O1727      H1748   0.990       .  S
O1728      C2068   1.289       .  A
O1729      C1732   1.280   1_556  A
O1730      H1740   0.989       .  S
O1731      H1744   0.990       .  S
C1732      O2064   1.290   1_545  A
C1732      C1963   1.431       .  S
H1742      O2377   0.990   1_545  S
H1754      O2362   0.990       .  S
Zr1755     O1756   2.440       .  S
Zr1755     O1757   2.444       .  S
Zr1755     O1758   2.467       .  S
Zr1755     O1761   2.466       .  S
Zr1755     O1763   2.387       .  S
Zr1755     O1764   2.385   1_545  S
Zr1755     O1765   2.410       .  S
Zr1755     O1766   2.402       .  S
O1756      H1812   0.991       .  S
O1756      H1820   0.990       .  S
O1757      C1777   1.283       .  A
O1758      C1779   1.288       .  A
O1759     Zr2441   2.386       .  S
O1759      C1778   1.274   1_565  A
O1760     Zr1768   2.388       .  S
O1760      C1779   1.274       .  A
O1761      C1778   1.289       .  A
O1762     Zr2442   2.390   1_545  S
O1762      C1777   1.274       .  A
O1763     Zr1768   2.393       .  S
O1763     Zr2442   2.383   1_545  S
O1764     Zr2441   2.386       .  S
O1764     Zr2442   2.377       .  S
O1764      H1799   0.965       .  S
O1765     Zr1768   2.398       .  S
O1765     Zr1785   2.374       .  S
O1765      H1802   0.964       .  S
O1766     Zr2441   2.383   1_545  S
O1766     Zr1785   2.382       .  S
Zr1767     O1792   2.441       .  S
Zr1767     O1786   2.428       .  S
Zr1767     O1794   2.448       .  S
Zr1767     O1782   2.470       .  S
Zr1767     O1773   2.398       .  S
Zr1767     O1774   2.401       .  S
Zr1767     O1775   2.382       .  S
Zr1767     O1776   2.394       .  S
Zr1768     O1787   2.438       .  S
Zr1768     O1780   2.436       .  S
Zr1768     O1781   2.398       .  S
Zr1768     O2446   2.395   1_545  S
Zr1768     O2447   2.386       .  S
Zr1769     O1771   2.435       .  S
Zr1769     O1793   2.440       .  S
Zr1769     O2431   2.386       .  S
Zr1769     O1795   2.379       .  S
Zr1769     O2436   2.383       .  S
Zr1769     O2438   2.383       .  S
Zr1769     O1773   2.387       .  S
Zr1769     O1776   2.383       .  S
Zr1770     O1796   2.436       .  S
Zr1770     O1797   2.437       .  S
Zr1770     O2444   2.435       .  S
Zr1770     O2434   2.381       .  S
Zr1770     O2435   2.383       .  S
Zr1770     O2436   2.377       .  S
Zr1770     O1773   2.376       .  S
Zr1770     O1774   2.378       .  S
O1771      H1808   0.990       .  S
O1772     Zr2442   2.436       .  S
O1772      H2475   0.990       .  S
O1772      H1817   0.990   1_565  S
O1774     Zr2440   2.392       .  S
O1774      H1800   0.966       .  S
O1775     Zr2440   2.384       .  S
O1775     Zr2457   2.384       .  S
O1776     Zr2457   2.381       .  S
O1776      H1801   0.967       .  S
C1777      C1962   1.424       .  S
C1778      C2003   1.430       .  S
C1779      C1981   1.424       .  S
O1780      H1816   0.990       .  S
O1781      C2455   1.276   1_545  A
O1782      C1783   1.289       .  A
C1783      O2453   1.276       .  A
C1783      C1954   1.433       .  S
O1784     Zr1785   2.440       .  S
O1784      H1813   0.990       .  S
Zr1785     O1788   2.439       .  S
Zr1785     O1789   2.442       .  S
Zr1785     O2462   2.381   1_545  S
Zr1785     O2447   2.385       .  S
Zr1785     O2448   2.380   1_545  S
O1786      C1791   1.280       .  A
O1787      H1804   0.991       .  S
O1787      H1819   0.990       .  S
O1788      H1805   0.990       .  S
O1789      H1809   0.990       .  S
O1789      H2490   0.989   1_545  S
O1790     Zr2457   2.376       .  S
O1790      C1791   1.272       .  A
C1791      C1976   1.409       .  S
O1792      H1811   0.991       .  S
O1792      H1815   0.990       .  S
O1793      H1807   0.990       .  S
O1793      H1814   0.990       .  S
O1794      C1798   1.286       .  A
O1795      C1798   1.273       .  A
O1796      H1806   0.990       .  S
O1797      H1810   0.990       .  S
C1798      C2011   1.417       .  S
H1803      O2444   0.990       .  S
H1818      O2461   0.989       .  S
Zr1821     O1822   2.441       .  S
Zr1821     O1823   2.446       .  S
Zr1821     O1824   2.450       .  S
Zr1821     O1827   2.435       .  S
Zr1821     O1829   2.379       .  S
Zr1821     O1830   2.387       .  S
Zr1821     O1831   2.413       .  S
Zr1821     O1832   2.402       .  S
O1822      H1878   0.990       .  S
O1822      H1886   0.991       .  S
O1823      C1843   1.283       .  A
O1825     Zr1835   2.453       .  S
O1825      C1844   1.287       .  A
O1826     Zr1834   2.426       .  S
O1826      C1845   1.281   1_556  A
O1827      C1844   1.282       .  A
O1828     Zr1836   2.408       .  S
O1828      C1843   1.277       .  A
O1829     Zr1836   2.382       .  S
O1830     Zr1835   2.401       .  S
O1830     Zr1836   2.381       .  S
O1830      H1865   0.965       .  S
O1831     Zr1851   2.384       .  S
O1831      H1868   0.964       .  S
O1832     Zr1835   2.387       .  S
O1832     Zr1851   2.388       .  S
Zr1833     O1858   2.442       .  S
Zr1833     O1852   2.455       .  S
Zr1833     O1848   2.453       .  S
Zr1833     O1840   2.413       .  S
Zr1833     O1841   2.380       .  S
Zr1834     O1853   2.437       .  S
Zr1834     O1846   2.434       .  S
Zr1834     O1847   2.422       .  S
Zr1834     O1840   2.401       .  S
Zr1834     O1841   2.398       .  S
Zr1835     O1837   2.435       .  S
Zr1835     O1859   2.440       .  S
Zr1835     O1861   2.441       .  S
Zr1835     O1839   2.391       .  S
Zr1835     O1842   2.401       .  S
Zr1836     O1862   2.435       .  S
Zr1836     O1839   2.383       .  S
O1837      H1874   0.990       .  S
O1838      H1869   0.991       .  S
O1838      H1883   0.990       .  S
O1840      H1866   0.964       .  S
O1842     Zr1851   2.381       .  S
O1842      H1867   0.965       .  S
C1843      C1967   1.436       .  S
C1844      C1986   1.444       .  S
C1845      C1960   1.433       .  S
O1846      H1882   0.990       .  S
O1847      C1849   1.281       .  A
O1848      C1849   1.285       .  A
C1849      C2016   1.435       .  S
O1850     Zr1851   2.440       .  S
O1850      H1879   0.991       .  S
Zr1851     O1855   2.439       .  S
O1852      C1857   1.285       .  A
O1853      H1870   0.991       .  S
O1853      H1885   0.989       .  S
O1854      H1871   0.990       .  S
O1855      H1875   0.990       .  S
O1855      H1884   0.990       .  S
O1856      C1857   1.276   1_554  A
C1857      C1991   1.438       .  S
O1858      H1877   0.991       .  S
O1858      H1881   0.990       .  S
O1859      H1873   0.990       .  S
O1859      H1880   0.990       .  S
O1860      C1864   1.283       .  A
O1861      C1864   1.286       .  A
O1862      H1872   0.990       .  S
O1863      H1876   0.990       .  S
C1864      C1978   1.438       .  S
Zr1887     O1888   2.440       .  S
Zr1887     O1889   2.439       .  S
Zr1887     O1890   2.461       .  S
Zr1887     O1893   2.455       .  S
Zr1887     O1895   2.385       .  S
Zr1887     O1897   2.407       .  S
Zr1887     O1898   2.402       .  S
O1888      H1944   0.990       .  S
O1888      H1952   0.991       .  S
O1889      C1909   1.282       .  A
O1890      C1911   1.287       .  A
O1891     Zr1901   2.414       .  S
O1891      C1910   1.280   1_655  A
O1892     Zr1900   2.418       .  S
O1892      C1911   1.280       .  A
O1894      C1909   1.279       .  A
O1895     Zr1900   2.393       .  S
O1896     Zr1901   2.395       .  S
O1896     Zr1902   2.374       .  S
O1896      H1931   0.964       .  S
O1897     Zr1900   2.396       .  S
O1897     Zr1917   2.389       .  S
O1897      H1934   0.965       .  S
O1898     Zr1917   2.384       .  S
Zr1899     O1924   2.441       .  S
Zr1899     O1926   2.461       .  S
Zr1899     O1905   2.409       .  S
Zr1899     O1908   2.386       .  S
Zr1900     O1919   2.436       .  S
Zr1900     O1912   2.436       .  S
Zr1900     O1913   2.412       .  S
Zr1900     O1906   2.397       .  S
Zr1900     O1907   2.393       .  S
Zr1901     O1903   2.434       .  S
Zr1901     O1925   2.440       .  S
Zr1901     O1927   2.423       .  S
Zr1901     O1905   2.392       .  S
Zr1901     O1908   2.390       .  S
Zr1902     O1928   2.436       .  S
Zr1902     O1929   2.436       .  S
Zr1902     O1905   2.394       .  S
O1903      H1940   0.990       .  S
O1904      H1935   0.990       .  S
O1904      H1949   0.990       .  S
O1906      H1932   0.966       .  S
O1907     Zr1917   2.381       .  S
O1908      H1933   0.967       .  S
C1909      C2001   1.435       .  S
C1910      C1966   1.440       .  S
C1911      C1984   1.440       .  S
O1912      H1948   0.990       .  S
O1913      C1915   1.279       .  A
O1914      C1915   1.290       .  A
C1915      C1993   1.441       .  S
O1916     Zr1917   2.439       .  S
O1916      H1945   0.990       .  S
Zr1917     O1920   2.436       .  S
Zr1917     O1921   2.440       .  S
Zr1917     O1922   2.406       .  S
O1918      C1923   1.286       .  A
O1919      H1936   0.991       .  S
O1919      H1951   0.990       .  S
O1920      H1937   0.990       .  S
O1921      H1941   0.990       .  S
O1921      H1950   0.990       .  S
O1922      C1923   1.278       .  A
C1923      C1956   1.436       .  S
O1924      H1943   0.991       .  S
O1924      H1947   0.990       .  S
O1925      H1939   0.990       .  S
O1925      H1946   0.990       .  S
O1926      C1930   1.288       .  A
O1927      C1930   1.281       .  A
O1928      H1938   0.990       .  S
O1929      H1942   0.990       .  S
C1930      C2013   1.445       .  S
C1953      C1954   1.207       .  T
C1955      C1956   1.209       .  T
C1957      C1958   1.212       .  T
C1959      C1960   1.206       .  T
C1961      C1962   1.201       .  T
C1963      C1964   1.205   1_554  T
C1965      C1966   1.210   1_655  T
C1967      C1968   1.207       .  T
C1969      C1970   1.216       .  T
C1971      H1973   1.089       .  S
C1971      C2644   1.343       .  D
C1972      C2643   1.357   1_545  D
C1975      C1976   1.194       .  T
C1977      C1978   1.208       .  T
C1979      C1980   1.204       .  T
C1980      C2385   1.428       .  S
C1981      C1982   1.202       .  T
C1983      C1984   1.210       .  T
C1985      C1986   1.212       .  T
C1987      H1989   1.088       .  S
C1987      C1988   1.351       .  D
C1991      C1992   1.209       .  T
C1993      C1994   1.211       .  T
C1997      H1999   1.086       .  S
C1997      C2670   1.356       .  D
C1998      C2669   1.358   1_545  D
C2003      C2004   1.205       .  T
C2005      C2006   1.212       .  T
C2007      H2009   1.090       .  S
C2007      C2008   1.335       .  D
C2008      H2010   1.090       .  S
C2011      C2012   1.197       .  T
C2013      C2014   1.213       .  T
C2015      C2016   1.207       .  T
C2017      C2343   1.506       .  S
C2017      C2348   1.461       .  S
C2017      C2350   1.482       .  S
C2017      C2351   1.475       .  S
C2018      C2338   1.474   1_655  S
C2018      C2340   1.466       .  S
C2018      C2342   1.477   1_655  S
C2019      C2660   1.531       .  S
C2019      C2328   1.476       .  S
C2019      C2330   1.479       .  S
C2019      C2332   1.483       .  S
C2020      C2344   1.505       .  S
C2020      C2318   1.457       .  S
C2020      C2319   1.478       .  S
C2020      C2321   1.476       .  S
C2021      C2307   1.513       .  S
C2021      C2311   1.459       .  S
C2021      C2313   1.467       .  S
C2021      C2315   1.473       .  S
C2022      C2301   1.478       .  S
C2022      C2304   1.474       .  S
C2022      C2305   1.486       .  S
C2023      C2644   1.506       .  S
C2023      C2295   1.468       .  S
C2023      C2297   1.453       .  S
C2023      C2300   1.469       .  S
C2024      C2333   1.536       .  S
C2024      C2289   1.470       .  S
C2024      C2291   1.474       .  S
C2024      C2293   1.477       .  S
Zr2025     O2026   2.441       .  S
Zr2025     O2363   2.497       .  S
Zr2025     O2364   2.466       .  S
Zr2025     O2031   2.479       .  S
Zr2025     O2369   2.385       .  S
O2026      H2082   0.990       .  S
O2027     Zr2361   2.491   1_554  S
O2027      C2047   1.293   1_655  A
O2028     Zr2361   2.463   1_554  S
O2028      C2049   1.289       .  A
O2029     Zr2039   2.412       .  S
O2029      C2048   1.279       .  A
O2030     Zr2038   2.411       .  S
O2032      C2047   1.273       .  A
O2033     Zr2361   2.383   1_554  S
O2034     Zr2039   2.399       .  S
O2034     Zr2376   2.381       .  S
O2034      H2069   0.967       .  S
O2035     Zr2038   2.402       .  S
O2035      H2072   0.963       .  S
O2036     Zr2055   2.381   1_545  S
Zr2037     O2056   2.497       .  S
Zr2037     O2064   2.467       .  S
Zr2037     O2052   2.480       .  S
Zr2037     O2045   2.380       .  S
Zr2037     O2382   2.393   1_554  S
Zr2038     O2057   2.435       .  S
Zr2039     O2063   2.438       .  S
Zr2039     O2065   2.408       .  S
Zr2039     O2379   2.377       .  S
Zr2040     O2066   2.437       .  S
Zr2040     O2067   2.435       .  S
Zr2040     O2042   2.438       .  S
Zr2040     O2370   2.383   1_554  S
Zr2040     O2043   2.374       .  S
Zr2040     O2044   2.375       .  S
O2042      H2073   0.991       .  S
O2043     Zr2375   2.377   1_554  S
O2044      H2070   0.963       .  S
O2045     Zr2391   2.391   1_554  S
O2046     Zr2373   2.393       .  S
O2046     Zr2055   2.384       .  S
O2046      H2071   0.967       .  S
C2047      C2306   1.450       .  S
O2050      H2086   0.990       .  S
O2051      C2053   1.282       .  A
O2052      C2053   1.292       .  A
C2053      C2294   1.442       .  S
O2054      H2083   0.991       .  S
Zr2055     O2059   2.441       .  S
Zr2055     O2396   2.391       .  S
Zr2055     O2381   2.388       .  S
O2056      C2061   1.294       .  A
O2057      H2074   0.990       .  S
O2057      H2089   0.990       .  S
O2058      H2075   0.990       .  S
O2059      H2079   0.990       .  S
O2059      H2088   0.990       .  S
O2060     Zr2391   2.386       .  S
O2060      C2061   1.272   1_556  A
C2061      C2331   1.450       .  S
O2062      H2081   0.990       .  S
O2062      H2085   0.990       .  S
O2063      H2077   0.990       .  S
O2063      H2084   0.990       .  S
O2065      C2068   1.279       .  A
O2066      H2076   0.990       .  S
O2067      H2080   0.990       .  S
C2068      C2299   1.428       .  S
Zr2091     O2092   2.440       .  S
Zr2091     O2093   2.427       .  S
Zr2091     O2094   2.457       .  S
Zr2091     O2097   2.462       .  S
Zr2091     O2099   2.389       .  S
Zr2091     O2100   2.387       .  S
Zr2091     O2101   2.406       .  S
Zr2091     O2102   2.396       .  S
O2092      H2148   0.991       .  S
O2092      H2156   0.990       .  S
O2093      C2113   1.280       .  A
O2094      C2115   1.286       .  A
O2095      C2114   1.274       .  A
O2096     Zr2104   2.385       .  S
O2096      C2115   1.273       .  A
O2097      C2114   1.288       .  A
O2098      C2113   1.273       .  A
O2099     Zr2104   2.389       .  S
O2100      H2135   0.965       .  S
O2101     Zr2104   2.398       .  S
O2101     Zr2121   2.369       .  S
O2101      H2138   0.964       .  S
O2102     Zr2121   2.380       .  S
Zr2103     O2128   2.440       .  S
Zr2103     O2122   2.445       .  S
Zr2103     O2130   2.459       .  S
Zr2103     O2118   2.473       .  S
Zr2103     O2109   2.400       .  S
Zr2103     O2110   2.408       .  S
Zr2103     O2111   2.381   1_565  S
Zr2103     O2112   2.391       .  S
Zr2104     O2123   2.436       .  S
Zr2104     O2116   2.435       .  S
Zr2104     O2117   2.395       .  S
Zr2105     O2107   2.436       .  S
Zr2105     O2129   2.440       .  S
Zr2105     O2131   2.383       .  S
Zr2105     O2109   2.386       .  S
Zr2105     O2112   2.385       .  S
Zr2106     O2132   2.438       .  S
Zr2106     O2133   2.436       .  S
Zr2106     O2109   2.378       .  S
Zr2106     O2110   2.384       .  S
O2107      H2144   0.990       .  S
O2108      H2153   0.990       .  S
O2110      H2136   0.966       .  S
O2112      H2137   0.964       .  S
C2113      C2298   1.413       .  S
C2114      C2339   1.430       .  S
C2115      C2317   1.419       .  S
O2116      H2152   0.990       .  S
O2118      C2119   1.289       .  A
C2119      C2290   1.434       .  S
O2120     Zr2121   2.441       .  S
O2120      H2149   0.990       .  S
Zr2121     O2124   2.439       .  S
Zr2121     O2125   2.440       .  S
O2122      C2127   1.283       .  A
O2123      H2140   0.991       .  S
O2123      H2155   0.990       .  S
O2124      H2141   0.990       .  S
O2125      H2145   0.990       .  S
O2126      C2127   1.273       .  A
C2127      C2312   1.421       .  S
O2128      H2147   0.991       .  S
O2128      H2151   0.990       .  S
O2129      H2143   0.990       .  S
O2129      H2150   0.990       .  S
O2130      C2134   1.288       .  A
O2131      C2134   1.274       .  A
O2132      H2142   0.990       .  S
O2133      H2146   0.990       .  S
C2134      C2347   1.424       .  S
Zr2157     O2158   2.445       .  S
Zr2157     O2159   2.459       .  S
Zr2157     O2160   2.447       .  S
Zr2157     O2163   2.441       .  S
Zr2157     O2165   2.385       .  S
Zr2157     O2166   2.385       .  S
Zr2157     O2167   2.418       .  S
Zr2157     O2168   2.404       .  S
O2158      H2214   0.990       .  S
O2158      H2222   0.991       .  S
O2159      C2179   1.286       .  A
O2160      C2517   1.283       .  A
O2161     Zr2171   2.437       .  S
O2161      C2180   1.284       .  A
O2162     Zr2170   2.433       .  S
O2162      C2181   1.283       .  A
O2163      C2180   1.284       .  A
O2164     Zr2172   2.401   1_554  S
O2164      C2179   1.275       .  A
O2165     Zr2506   2.401   1_554  S
O2165     Zr2172   2.384   1_554  S
O2166     Zr2171   2.397       .  S
O2166     Zr2172   2.381   1_554  S
O2166      H2201   0.965       .  S
O2167     Zr2506   2.405   1_554  S
O2167     Zr2187   2.389       .  S
O2167      H2204   0.963       .  S
O2168     Zr2171   2.387       .  S
O2168     Zr2187   2.392       .  S
Zr2169     O2194   2.443       .  S
Zr2169     O2188   2.453       .  S
Zr2169     O2532   2.446       .  S
Zr2169     O2184   2.449       .  S
Zr2169     O2511   2.399       .  S
Zr2169     O2176   2.413       .  S
Zr2169     O2177   2.382       .  S
Zr2169     O2514   2.388       .  S
Zr2170     O2189   2.436       .  S
Zr2170     O2182   2.437       .  S
Zr2170     O2183   2.437       .  S
Zr2170     O2501   2.402       .  S
Zr2170     O2503   2.404       .  S
Zr2170     O2176   2.402       .  S
Zr2170     O2177   2.400       .  S
Zr2171     O2173   2.436       .  S
Zr2171     O2195   2.440       .  S
Zr2171     O2197   2.427       .  S
Zr2171     O2175   2.388       .  S
Zr2171     O2178   2.398       .  S
Zr2172     O2198   2.434   1_556  S
Zr2172     O2535   2.436       .  S
Zr2172     O2510   2.438       .  S
Zr2172     O2175   2.383   1_556  S
Zr2172     O2512   2.385       .  S
O2173      H2210   0.990       .  S
O2174     Zr2508   2.438       .  S
O2174      H2205   0.991       .  S
O2174      H2219   0.990       .  S
O2175     Zr2505   2.401   1_554  S
O2176     Zr2508   2.381       .  S
O2176      H2202   0.964       .  S
O2177     Zr2523   2.385       .  S
O2178     Zr2505   2.386   1_554  S
O2178     Zr2187   2.382       .  S
O2178      H2203   0.966       .  S
C2179      C2303   1.438       .  S
C2180      C2322   1.440       .  S
C2181      O2496   1.282       .  A
C2181      C2296   1.436       .  S
O2182      H2218   0.990       .  S
O2183      C2185   1.284       .  A
O2184      C2185   1.284       .  A
C2185      C2352   1.438       .  S
O2186     Zr2187   2.440       .  S
O2186      H2215   0.990       .  S
Zr2187     O2526   2.438       .  S
Zr2187     O2191   2.441       .  S
Zr2187     O2528   2.410       .  S
Zr2187     O2513   2.384   1_554  S
O2188      C2193   1.285       .  A
O2189      H2206   0.991       .  S
O2189      H2221   0.990       .  S
O2190     Zr2523   2.437       .  S
O2190      H2207   0.990       .  S
O2191      H2211   0.990       .  S
O2191      H2220   0.990       .  S
O2192     Zr2523   2.415       .  S
O2192      C2193   1.278       .  A
C2193      C2327   1.441       .  S
O2194      H2213   0.991       .  S
O2194      H2217   0.990       .  S
O2195      H2209   0.990       .  S
O2195      H2216   0.990       .  S
O2196     Zr2505   2.444       .  S
O2196      C2200   1.284   1_556  A
O2197      C2200   1.283       .  A
O2198      H2208   0.990       .  S
O2199     Zr2508   2.435       .  S
O2199      H2212   0.990       .  S
C2200      C2314   1.435       .  S
Zr2223     O2224   2.440       .  S
Zr2223     O2225   2.438       .  S
Zr2223     O2226   2.462       .  S
Zr2223     O2229   2.451       .  S
Zr2223     O2231   2.383       .  S
Zr2223     O2233   2.407       .  S
Zr2223     O2234   2.404       .  S
O2224      H2280   0.990       .  S
O2224      H2288   0.991       .  S
O2225      C2245   1.282       .  A
O2226      C2247   1.287       .  A
O2227     Zr2237   2.423       .  S
O2227      C2246   1.282   1_655  A
O2228     Zr2236   2.422       .  S
O2228      C2247   1.280       .  A
O2230      C2245   1.280       .  A
O2231     Zr2236   2.393       .  S
O2232     Zr2237   2.394       .  S
O2232     Zr2238   2.374       .  S
O2232      H2267   0.964       .  S
O2233     Zr2236   2.393       .  S
O2233     Zr2253   2.389       .  S
O2233      H2270   0.965       .  S
O2234     Zr2253   2.385       .  S
Zr2235     O2260   2.441       .  S
Zr2235     O2262   2.461       .  S
Zr2235     O2241   2.411       .  S
Zr2235     O2244   2.387       .  S
Zr2236     O2255   2.435       .  S
Zr2236     O2248   2.435       .  S
Zr2236     O2249   2.410       .  S
Zr2236     O2242   2.400       .  S
Zr2236     O2243   2.392       .  S
Zr2237     O2239   2.435       .  S
Zr2237     O2261   2.440       .  S
Zr2237     O2263   2.429       .  S
Zr2237     O2241   2.394       .  S
Zr2237     O2244   2.393       .  S
Zr2238     O2264   2.435       .  S
Zr2238     O2265   2.436       .  S
Zr2238     O2241   2.397       .  S
O2239      H2276   0.990       .  S
O2240      H2271   0.990       .  S
O2240      H2285   0.990       .  S
O2242      H2268   0.966       .  S
O2243     Zr2253   2.381       .  S
O2244      H2269   0.967       .  S
C2245      C2337   1.436       .  S
C2246      C2302   1.442       .  S
C2247      C2320   1.443       .  S
O2248      H2284   0.990       .  S
O2249      C2251   1.279       .  A
O2250      C2251   1.291       .  A
C2251      C2329   1.441       .  S
O2252     Zr2253   2.439       .  S
O2252      H2281   0.990       .  S
Zr2253     O2256   2.437       .  S
Zr2253     O2257   2.439       .  S
Zr2253     O2258   2.402       .  S
O2254      C2259   1.286       .  A
O2255      H2272   0.990       .  S
O2255      H2287   0.990       .  S
O2256      H2273   0.991       .  S
O2257      H2277   0.990       .  S
O2257      H2286   0.990       .  S
O2258      C2259   1.277       .  A
C2259      C2292   1.434       .  S
O2260      H2279   0.990       .  S
O2260      H2283   0.990       .  S
O2261      H2275   0.990       .  S
O2261      H2282   0.990       .  S
O2262      C2266   1.288       .  A
O2263      C2266   1.282       .  A
O2264      H2274   0.990       .  S
O2265      H2278   0.990       .  S
C2266      C2349   1.447       .  S
C2289      C2290   1.207       .  T
C2291      C2292   1.207       .  T
C2293      C2294   1.212       .  T
C2295      C2296   1.207       .  T
C2297      C2298   1.195       .  T
C2299      C2300   1.204       .  T
C2301      C2302   1.211   1_655  T
C2303      C2304   1.209       .  T
C2305      C2306   1.217   1_655  T
C2307      H2309   1.086       .  S
C2308      C2359   1.506   1_554  S
C2308      H2646   1.089   1_554  S
H2310      C2644   1.089       .  S
C2311      C2312   1.200       .  T
C2313      C2314   1.207       .  T
C2315      C2316   1.206       .  T
C2317      C2318   1.200       .  T
C2319      C2320   1.211       .  T
C2321      C2322   1.210       .  T
C2323      H2325   1.088       .  S
C2323      C2324   1.352       .  D
C2324      C2355   1.535   1_554  S
C2324      H2662   1.088   1_554  S
H2326      C2660   1.089       .  S
C2327      C2328   1.210       .  T
C2329      C2330   1.211       .  T
C2331      C2668   1.217       .  T
C2332      C2667   1.216       .  T
C2333      H2335   1.086   1_565  S
C2339      C2340   1.205       .  T
C2341      C2342   1.212       .  T
C2343      H2345   1.090       .  S
C2343      C2344   1.336       .  D
C2344      H2346   1.090       .  S
C2347      C2348   1.202       .  T
C2349      C2350   1.214       .  T
C2351      C2352   1.209       .  T
C2353      C2679   1.507       .  S
C2353      C2684   1.460       .  S
C2353      C2686   1.484       .  S
C2353      C2687   1.474       .  S
C2354      C2674   1.475   1_655  S
C2354      C2676   1.462       .  S
C2354      C2678   1.473   1_655  S
C2355      C2664   1.474       .  S
C2355      C2666   1.480       .  S
C2355      C2668   1.486   1_556  S
C2356      C2680   1.506       .  S
C2356      C2654   1.457       .  S
C2356      C2655   1.477       .  S
C2356      C2657   1.475       .  S
C2357      C2643   1.514       .  S
C2357      C2647   1.459       .  S
C2357      C2649   1.468       .  S
C2357      C2651   1.476       .  S
C2358      C2637   1.477       .  S
C2358      C2640   1.469       .  S
C2358      C2641   1.485       .  S
C2359      C2631   1.468   1_556  S
C2359      C2633   1.452       .  S
C2359      C2636   1.471       .  S
C2360      C2669   1.537       .  S
C2360      C2625   1.467       .  S
C2360      C2627   1.474       .  S
C2360      C2629   1.476       .  S
Zr2361     O2362   2.439       .  S
Zr2361     O2367   2.477       .  S
O2362      H2418   0.990       .  S
O2363      C2383   1.294   1_655  A
O2364      C2385   1.289       .  A
O2365     Zr2375   2.421       .  S
O2365      C2384   1.281       .  A
O2366     Zr2374   2.420       .  S
O2368      C2383   1.272       .  A
O2370     Zr2375   2.401       .  S
O2370      H2405   0.967       .  S
O2371     Zr2374   2.399       .  S
O2371      H2408   0.963       .  S
O2372     Zr2391   2.379   1_545  S
Zr2373     O2392   2.491       .  S
Zr2373     O2400   2.468       .  S
Zr2373     O2388   2.483       .  S
Zr2373     O2381   2.380       .  S
Zr2374     O2393   2.437       .  S
Zr2375     O2399   2.441       .  S
Zr2375     O2401   2.415       .  S
Zr2376     O2402   2.436       .  S
Zr2376     O2403   2.434       .  S
Zr2376     O2378   2.438       .  S
Zr2376     O2379   2.374       .  S
Zr2376     O2380   2.379       .  S
O2378      H2409   0.990       .  S
O2380      H2406   0.964       .  S
O2382     Zr2391   2.381       .  S
O2382      H2407   0.966       .  S
C2383      C2642   1.449   1_455  S
O2386      H2422   0.990       .  S
O2387      C2389   1.280       .  A
O2388      C2389   1.292       .  A
C2389      C2630   1.441       .  S
O2390      H2419   0.991       .  S
Zr2391     O2395   2.442       .  S
O2392      C2397   1.293       .  A
O2393      H2410   0.990       .  S
O2393      H2425   0.990       .  S
O2394      H2411   0.990       .  S
O2395      H2415   0.990       .  S
O2395      H2424   0.990       .  S
O2396      C2397   1.273       .  A
C2397      C2667   1.448       .  S
O2398      H2417   0.990       .  S
O2398      H2421   0.990       .  S
O2399      H2413   0.990       .  S
O2399      H2420   0.990       .  S
O2401      C2404   1.280       .  A
O2402      H2412   0.990       .  S
O2403      H2416   0.990       .  S
C2404      C2635   1.431       .  S
Zr2427     O2428   2.441       .  S
Zr2427     O2429   2.428       .  S
Zr2427     O2430   2.461       .  S
Zr2427     O2433   2.458       .  S
Zr2427     O2435   2.388       .  S
Zr2427     O2436   2.388       .  S
Zr2427     O2437   2.404       .  S
Zr2427     O2438   2.398       .  S
O2428      H2484   0.991       .  S
O2428      H2492   0.990       .  S
O2429      C2449   1.280       .  A
O2430      C2451   1.287       .  A
O2431      C2450   1.274       .  A
O2432     Zr2440   2.386       .  S
O2432      C2451   1.273       .  A
O2433      C2450   1.288       .  A
O2434      C2449   1.273       .  A
O2435     Zr2440   2.389       .  S
O2436      H2471   0.965       .  S
O2437     Zr2440   2.398       .  S
O2437     Zr2457   2.371       .  S
O2437      H2474   0.964       .  S
O2438     Zr2457   2.381       .  S
Zr2439     O2464   2.439       .  S
Zr2439     O2458   2.443       .  S
Zr2439     O2466   2.462       .  S
Zr2439     O2454   2.468       .  S
Zr2439     O2445   2.397       .  S
Zr2439     O2446   2.411       .  S
Zr2439     O2447   2.383   1_565  S
Zr2439     O2448   2.391       .  S
Zr2440     O2459   2.437       .  S
Zr2440     O2452   2.436       .  S
Zr2440     O2453   2.397       .  S
Zr2441     O2443   2.435       .  S
Zr2441     O2465   2.440       .  S
Zr2441     O2467   2.377       .  S
Zr2441     O2445   2.385       .  S
Zr2441     O2448   2.387       .  S
Zr2442     O2468   2.436       .  S
Zr2442     O2469   2.437       .  S
Zr2442     O2445   2.378       .  S
Zr2442     O2446   2.383       .  S
O2443      H2480   0.990       .  S
O2444      H2489   0.990       .  S
O2446      H2472   0.966       .  S
O2448      H2473   0.965       .  S
C2449      C2634   1.412       .  S
C2450      C2675   1.426       .  S
C2451      C2653   1.421       .  S
O2452      H2488   0.990       .  S
O2454      C2455   1.289       .  A
C2455      C2626   1.431       .  S
O2456     Zr2457   2.442       .  S
O2456      H2485   0.990       .  S
Zr2457     O2460   2.438       .  S
Zr2457     O2461   2.443       .  S
O2458      C2463   1.283       .  A
O2459      H2476   0.991       .  S
O2459      H2491   0.990       .  S
O2460      H2477   0.990       .  S
O2461      H2481   0.990       .  S
O2462      C2463   1.272       .  A
C2463      C2648   1.420       .  S
O2464      H2483   0.991       .  S
O2464      H2487   0.989       .  S
O2465      H2479   0.990       .  S
O2465      H2486   0.990       .  S
O2466      C2470   1.289       .  A
O2467      C2470   1.272       .  A
O2468      H2478   0.990       .  S
O2469      H2482   0.990       .  S
C2470      C2683   1.423       .  S
Zr2493     O2494   2.445       .  S
Zr2493     O2495   2.456       .  S
Zr2493     O2496   2.447       .  S
Zr2493     O2499   2.440       .  S
Zr2493     O2501   2.383       .  S
Zr2493     O2502   2.384       .  S
Zr2493     O2503   2.416       .  S
Zr2493     O2504   2.405       .  S
O2494      H2550   0.990       .  S
O2494      H2558   0.991       .  S
O2495      C2515   1.285       .  A
O2497     Zr2507   2.437       .  S
O2497      C2516   1.284       .  A
O2498     Zr2506   2.435       .  S
O2498      C2517   1.284   1_556  A
O2499      C2516   1.284       .  A
O2500     Zr2508   2.393       .  S
O2500      C2515   1.274       .  A
O2501     Zr2508   2.384       .  S
O2502     Zr2507   2.396       .  S
O2502     Zr2508   2.382       .  S
O2502      H2537   0.965       .  S
O2503     Zr2523   2.391       .  S
O2503      H2540   0.963       .  S
O2504     Zr2507   2.386       .  S
O2504     Zr2523   2.390       .  S
Zr2505     O2530   2.443       .  S
Zr2505     O2524   2.452       .  S
Zr2505     O2520   2.445       .  S
Zr2505     O2512   2.414       .  S
Zr2505     O2513   2.381       .  S
Zr2506     O2525   2.436       .  S
Zr2506     O2518   2.436       .  S
Zr2506     O2519   2.437       .  S
Zr2506     O2512   2.401       .  S
Zr2506     O2513   2.401       .  S
Zr2507     O2509   2.436       .  S
Zr2507     O2531   2.438       .  S
Zr2507     O2533   2.425       .  S
Zr2507     O2511   2.389       .  S
Zr2507     O2514   2.400       .  S
Zr2508     O2534   2.435       .  S
Zr2508     O2511   2.382       .  S
O2509      H2546   0.990       .  S
O2510      H2541   0.991       .  S
O2510      H2555   0.990       .  S
O2512      H2538   0.964       .  S
O2514     Zr2523   2.384       .  S
O2514      H2539   0.967       .  S
C2515      C2639   1.432       .  S
C2516      C2658   1.439       .  S
C2517      C2632   1.436       .  S
O2518      H2554   0.990       .  S
O2519      C2521   1.284       .  A
O2520      C2521   1.283       .  A
C2521      C2688   1.437       .  S
O2522     Zr2523   2.442       .  S
O2522      H2551   0.990       .  S
Zr2523     O2527   2.443       .  S
O2524      C2529   1.284       .  A
O2525      H2542   0.991       .  S
O2525      H2557   0.989       .  S
O2526      H2543   0.990       .  S
O2527      H2547   0.990       .  S
O2527      H2556   0.990       .  S
O2528      C2529   1.277   1_554  A
C2529      C2663   1.438       .  S
O2530      H2549   0.991       .  S
O2530      H2553   0.990       .  S
O2531      H2545   0.990       .  S
O2531      H2552   0.990       .  S
O2532      C2536   1.285       .  A
O2533      C2536   1.282       .  A
O2534      H2544   0.990       .  S
O2535      H2548   0.990       .  S
C2536      C2650   1.436       .  S
Zr2559     O2560   2.442       .  S
Zr2559     O2561   2.448       .  S
Zr2559     O2562   2.463       .  S
Zr2559     O2565   2.465       .  S
Zr2559     O2567   2.385       .  S
Zr2559     O2569   2.411       .  S
Zr2559     O2570   2.404       .  S
O2560      H2616   0.990       .  S
O2560      H2624   0.991       .  S
O2561      C2581   1.284       .  A
O2562      C2583   1.288       .  A
O2563     Zr2573   2.427       .  S
O2563      C2582   1.283   1_655  A
O2564     Zr2572   2.420       .  S
O2564      C2583   1.280       .  A
O2566      C2581   1.280       .  A
O2567     Zr2572   2.393       .  S
O2568     Zr2573   2.396       .  S
O2568     Zr2574   2.373       .  S
O2568      H2603   0.965       .  S
O2569     Zr2572   2.397       .  S
O2569     Zr2589   2.387       .  S
O2569      H2606   0.965       .  S
O2570     Zr2589   2.386       .  S
Zr2571     O2596   2.441       .  S
Zr2571     O2598   2.466       .  S
Zr2571     O2577   2.410       .  S
Zr2571     O2580   2.390       .  S
Zr2572     O2591   2.435       .  S
Zr2572     O2584   2.435       .  S
Zr2572     O2585   2.417       .  S
Zr2572     O2578   2.399       .  S
Zr2572     O2579   2.392       .  S
Zr2573     O2575   2.436       .  S
Zr2573     O2597   2.439       .  S
Zr2573     O2599   2.427       .  S
Zr2573     O2577   2.395       .  S
Zr2573     O2580   2.392       .  S
Zr2574     O2600   2.434       .  S
Zr2574     O2601   2.435       .  S
Zr2574     O2577   2.394       .  S
O2575      H2612   0.990       .  S
O2576      H2607   0.990       .  S
O2576      H2621   0.990       .  S
O2578      H2604   0.966       .  S
O2579     Zr2589   2.380       .  S
O2580      H2605   0.966       .  S
C2581      C2673   1.439       .  S
C2582      C2638   1.441       .  S
C2583      C2656   1.441       .  S
O2584      H2620   0.990       .  S
O2585      C2587   1.281       .  A
O2586      C2587   1.290       .  A
C2587      C2665   1.443       .  S
O2588     Zr2589   2.438       .  S
O2588      H2617   0.990       .  S
Zr2589     O2592   2.437       .  S
Zr2589     O2593   2.438       .  S
Zr2589     O2594   2.401       .  S
O2590      C2595   1.286       .  A
O2591      H2608   0.991       .  S
O2591      H2623   0.990       .  S
O2592      H2609   0.991       .  S
O2593      H2613   0.990       .  S
O2593      H2622   0.990       .  S
O2594      C2595   1.277       .  A
C2595      C2628   1.434       .  S
O2596      H2615   0.990       .  S
O2596      H2619   0.990       .  S
O2597      H2611   0.990       .  S
O2597      H2618   0.990       .  S
O2598      C2602   1.288       .  A
O2599      C2602   1.282       .  A
O2600      H2610   0.990       .  S
O2601      H2614   0.990       .  S
C2602      C2685   1.448       .  S
C2625      C2626   1.205       .  T
C2627      C2628   1.208       .  T
C2629      C2630   1.212       .  T
C2631      C2632   1.207       .  T
C2633      C2634   1.195       .  T
C2635      C2636   1.205       .  T
C2637      C2638   1.210   1_655  T
C2639      C2640   1.206       .  T
C2641      C2642   1.216       .  T
C2643      H2645   1.086       .  S
C2647      C2648   1.200       .  T
C2649      C2650   1.207       .  T
C2651      C2652   1.207       .  T
C2653      C2654   1.200       .  T
C2655      C2656   1.210       .  T
C2657      C2658   1.209       .  T
C2659      H2661   1.088       .  S
C2659      C2660   1.350       .  D
C2663      C2664   1.209       .  T
C2665      C2666   1.212       .  T
C2669      H2671   1.086   1_565  S
C2675      C2676   1.203       .  T
C2677      C2678   1.209       .  T
C2679      H2681   1.090       .  S
C2679      C2680   1.336       .  D
C2680      H2682   1.090       .  S
C2683      C2684   1.201       .  T
C2685      C2686   1.214       .  T
C2687      C2688   1.208       .  T
