geometry optimzed in LAMMPS
_audit_creation_date              2020-11-30 
_audit_creation_method            'lammps2cif' 
_symmetry_space_group_name_H-M    'P1' 
_symmetry_Int_Tables_number       1 
_symmetry_cell_setting            triclinic 
loop_ 
_symmetry_equiv_pos_as_xyz 
  x,y,z 
_cell_length_a                    41.89157761 
_cell_length_b                    41.91157313137674 
_cell_length_c                    26.523751879523633 
_cell_angle_alpha                 90.42814301890317 
_cell_angle_beta                  90.0146411053965 
_cell_angle_gamma                 90.00663918464309 
loop_ 
_atom_site_label 
_atom_site_type_symbol 
_atom_site_fract_x 
_atom_site_fract_y 
_atom_site_fract_z 
_atom_site_charge 
In1        In  0.10029693  0.59491036  0.20420912     1.36900
C2          C  0.11496245  0.53437910  0.22305473     0.79200
O3          O  0.05387671  0.61911061  0.22455733    -0.59200
O4          O  0.05219461  0.57302922  0.19080564    -0.50100
C5          C  0.12782793  0.63806100  0.26470076     0.71900
O6          O  0.11081934  0.61567379  0.28096541    -0.45000
C7          C  0.10688079  0.60664244  0.10648267     0.76600
O8          O  0.12888815  0.55005397  0.18925616    -0.56800
O9          O  0.08342477  0.61621768  0.13212129    -0.46900
O10         O  0.09682382  0.55062254  0.25093598    -0.53300
C11         C  0.03687137  0.59630461  0.20883802     0.86800
O12         O  0.13306285  0.63681712  0.21807193    -0.55200
O13         O  0.12860493  0.59312783  0.13148488    -0.58500
In14       In  0.12780372  0.75837509  0.41250697     1.36900
C15         C  0.06563020  0.77101564  0.40574575     0.79200
O16         O  0.14286579  0.72467221  0.35038827    -0.59200
O17         O  0.11644384  0.70583253  0.41129335    -0.50100
C18         C  0.16662227  0.79983708  0.36800881     0.71900
O19         O  0.13674375  0.80301791  0.36806400    -0.45000
C20         C  0.14446404  0.76071439  0.50891490     0.76600
O21         O  0.08302882  0.76745335  0.36744608    -0.56800
O22         O  0.15047366  0.73679654  0.48136603    -0.46900
O23         O  0.07994271  0.76893851  0.44720025    -0.53300
C24         C  0.12946651  0.70067339  0.36926837     0.86800
O25         O  0.17684940  0.77596349  0.39161534    -0.55200
O26         O  0.13145307  0.78378941  0.48675641    -0.58500
In27       In  0.26599679  0.90525889  0.25938592     1.36900
C28         C  0.26259864  0.96872878  0.26075654     0.79200
O29         O  0.28520047  0.90693630  0.33781758    -0.59200
O30         O  0.31765695  0.89713698  0.27800090    -0.50100
C31         C  0.22570162  0.86275820  0.29736294     0.71900
O32         O  0.21824267  0.89164711  0.29156869    -0.45000
C33         C  0.26626296  0.89212462  0.16112470     0.76600
O34         O  0.24005563  0.95149285  0.27642994    -0.56800
O35         O  0.28881054  0.88405588  0.18976715    -0.46900
O36         O  0.28634782  0.95368041  0.24407080    -0.53300
C37         C  0.31363649  0.90183060  0.32465363     0.86800
O38         O  0.25324026  0.85529776  0.28223975    -0.55200
O39         O  0.24314978  0.90562058  0.18281664    -0.58500
In40       In  0.43695674  0.94291660  0.44519094     1.36900
C41         C  0.49799560  0.93136891  0.42735087     0.79200
O42         O  0.41586507  0.98979236  0.41861316    -0.59200
O43         O  0.45527803  0.99055296  0.46888185    -0.50100
C44         C  0.39529429  0.91522822  0.38288493     0.71900
O45         O  0.42302307  0.92267063  0.36913028    -0.45000
C46         C  0.42663216  0.93213068  0.54210063     0.76600
O47         O  0.48115630  0.91277099  0.45343919    -0.56800
O48         O  0.41446221  0.95522866  0.51891250    -0.46900
O49         O  0.48276800  0.95315329  0.40544013    -0.53300
C50         C  0.43551732  0.00635470  0.44363772     0.86800
O51         O  0.38980419  0.91986755  0.42897026    -0.55200
O52         O  0.44173706  0.91250110  0.51477681    -0.58500
In53       In  0.93869823  0.59886746  0.20454783     1.40100
C54         C  0.92604249  0.53906448  0.22697249     0.79200
O55         O  0.90869868  0.59318886  0.13394888    -0.59200
O56         O  0.95246400  0.61860546  0.13006573    -0.50100
C57         C  0.91189613  0.64383552  0.26256532     0.71900
O58         O  0.91171051  0.61479002  0.27416715    -0.45000
C59         C  0.00204373  0.59702459  0.20934300     0.76600
O60         O  0.90890845  0.55457655  0.19655081    -0.56800
O61         O  0.98574132  0.57662253  0.18580759    -0.46900
O62         O  0.94640258  0.55535111  0.25094990    -0.53300
C63         C  0.92907587  0.60695690  0.10665198     0.86800
O64         O  0.92378568  0.64949142  0.22005118    -0.55200
O65         O  0.98601846  0.61820836  0.23190410    -0.58500
In66       In  0.76097714  0.91082404  0.24706499     1.36900
C67         C  0.76719398  0.97367301  0.24338554     0.79200
O68         O  0.78407633  0.90878745  0.17062935    -0.59200
O69         O  0.73611015  0.89284037  0.17642637    -0.50100
C70         C  0.80084626  0.86920670  0.28726475     0.71900
O71         O  0.80591019  0.89879583  0.28807969    -0.45000
C72         C  0.71614652  0.90915328  0.31802374     0.76600
O73         O  0.79069902  0.95555417  0.25105345    -0.56800
O74         O  0.71099623  0.89871800  0.27386630    -0.46900
O75         O  0.74090567  0.95973161  0.23646551    -0.53300
C76         C  0.75977146  0.89814960  0.14823585     0.86800
O77         O  0.77591219  0.86052115  0.26436235    -0.55200
O78         O  0.74402795  0.91923352  0.32558450    -0.58500
In79       In  0.90594520  0.77080765  0.39587878     1.36900
C80         C  0.96889960  0.77564574  0.40013741     0.79200
O81         O  0.90451330  0.79446607  0.47200233    -0.59200
O82         O  0.88753354  0.74678146  0.46591702    -0.50100
C83         C  0.86307378  0.80979592  0.35724139     0.71900
O84         O  0.89241148  0.81641809  0.35820933    -0.45000
C85         C  0.90375387  0.72536158  0.32567255     0.76600
O86         O  0.95141557  0.79918644  0.38962881    -0.56800
O87         O  0.89470136  0.72061872  0.37047948    -0.46900
O88         O  0.95428995  0.75006535  0.40908955    -0.53300
C89         C  0.89333030  0.77046302  0.49409590     0.86800
O90         O  0.85539942  0.78388108  0.37772764    -0.55200
O91         O  0.91268143  0.75344726  0.31670638    -0.58500
In92       In  0.59390010  0.94180547  0.44973238     1.36900
C93         C  0.53290417  0.93129545  0.42880503     0.79200
O94         O  0.59148532  0.91002803  0.51884943    -0.59200
O95         O  0.61392417  0.95522942  0.52481683    -0.50100
C96         C  0.63671208  0.91548614  0.38774337     0.71900
O97         O  0.60716813  0.91385560  0.37954524    -0.45000
C98         C  0.59414691  0.00487294  0.44374543     0.76600
O99         O  0.54882666  0.91264956  0.45625730    -0.56800
O100        O  0.57553489  0.98960987  0.47190777    -0.46900
O101        O  0.54893280  0.95292347  0.40796511    -0.53300
C102        C  0.60422852  0.93073782  0.54715644     0.86800
O103        O  0.64400712  0.92845658  0.42909814    -0.55200
O104        O  0.61300699  0.98793475  0.41791870    -0.58500
In105      In  0.27337867  0.12889157  0.24609146     1.36900
C106        C  0.26627787  0.06581767  0.25537022     0.79200
O107        O  0.24629643  0.12792734  0.17274283    -0.59200
O108        O  0.29033162  0.15299026  0.17530123    -0.50100
C109        C  0.23171375  0.16848413  0.28903638     0.71900
O110        O  0.22644003  0.13903247  0.28398796    -0.45000
C111        C  0.33000858  0.13462839  0.29136199     0.76600
O112        O  0.25552360  0.08529175  0.28745238    -0.56800
O113        O  0.32698781  0.12757710  0.24547932    -0.46900
O114        O  0.28036920  0.07838598  0.21873473    -0.53300
C115        C  0.26711515  0.14347943  0.14902975     0.86800
O116        O  0.25786481  0.17797688  0.27101281    -0.55200
O117        O  0.30409075  0.13979186  0.31401863    -0.58500
In118      In  0.12431439  0.26703235  0.39838574     1.36900
C119        C  0.06116601  0.26015879  0.39974419     0.79200
O120        O  0.12511656  0.24629866  0.47654117    -0.59200
O121        O  0.14008338  0.29431384  0.46815134    -0.50100
C122        C  0.16766934  0.22735216  0.35930188     0.71900
O123        O  0.13813081  0.22205694  0.35682397    -0.45000
C124        C  0.12758875  0.31278444  0.32981820     0.76600
O125        O  0.07971527  0.23663465  0.39474407    -0.56800
O126        O  0.13759788  0.31688472  0.37434340    -0.46900
O127        O  0.07477451  0.28676225  0.40464432    -0.53300
C128        C  0.13463231  0.27155241  0.49773348     0.86800
O129        O  0.17528927  0.25226881  0.38326460    -0.55200
O130        O  0.11699266  0.28526372  0.32042259    -0.58500
In131      In  0.10093254  0.43887256  0.20620267     1.36900
C132        C  0.11496425  0.49945864  0.22409164     0.79200
O133        O  0.12995327  0.44101458  0.13373790    -0.59200
O134        O  0.08549616  0.41676198  0.13340628    -0.50100
C135        C  0.12595055  0.39375107  0.26495657     0.71900
O136        O  0.13069296  0.42298678  0.27329547    -0.45000
C137        C  0.03774093  0.44243867  0.21403963     0.76600
O138        O  0.13107490  0.48263897  0.19372267    -0.56800
O139        O  0.05353447  0.45728733  0.18146649    -0.46900
O140        O  0.09493621  0.48427998  0.25001278    -0.53300
C141        C  0.10836665  0.42755934  0.10798422     0.86800
O142        O  0.11090425  0.38794833  0.22493381    -0.55200
O143        O  0.05426109  0.42635631  0.24437904    -0.58500
In144      In  0.43780571  0.10469161  0.44987099     1.36900
C145        C  0.49831353  0.11903766  0.42836972     0.79200
O146        O  0.44184983  0.13154601  0.52403856    -0.59200
O147        O  0.41591105  0.08797251  0.52177661    -0.50100
C148        C  0.39307076  0.13280792  0.39411707     0.71900
O149        O  0.41554405  0.11680694  0.37523941    -0.45000
C150        C  0.43594887  0.04121649  0.44438880     0.76600
O151        O  0.48275611  0.13366131  0.46192653    -0.56800
O152        O  0.45841958  0.05650997  0.46479725    -0.46900
O153        O  0.48186061  0.10048397  0.40142401    -0.53300
C154        C  0.42698099  0.11042022  0.54830710     0.86800
O155        O  0.39523805  0.13714218  0.44091087    -0.55200
O156        O  0.41409158  0.05829328  0.42618055    -0.58500
In157      In  0.59316174  0.10280390  0.44871723     1.36900
C158        C  0.53331283  0.11853656  0.42751489     0.79200
O159        O  0.61406667  0.05626801  0.41993611    -0.59200
O160        O  0.57293615  0.05519920  0.46664809    -0.50100
C161        C  0.63994280  0.12992650  0.39669352     0.71900
O162        O  0.61447401  0.12043986  0.37623844    -0.45000
C163        C  0.60084826  0.10847122  0.54726008     0.76600
O164        O  0.54998016  0.13433895  0.45838413    -0.56800
O165        O  0.61271856  0.08593914  0.52180811    -0.46900
O166        O  0.54856830  0.09810124  0.40215057    -0.53300
C167        C  0.59367421  0.03960177  0.44270736     0.86800
O168        O  0.64024770  0.12807923  0.44390900    -0.55200
O169        O  0.58720614  0.12988444  0.52186482    -0.58500
In170      In  0.75334635  0.13305545  0.23810860     1.36900
C171        C  0.76376578  0.07043205  0.24222155     0.79200
O172        O  0.72618304  0.13851314  0.31064594    -0.59200
O173        O  0.69998035  0.13668296  0.24227254    -0.50100
C174        C  0.79259647  0.17484387  0.28205745     0.71900
O175        O  0.79264263  0.14558123  0.29220827    -0.45000
C176        C  0.75515793  0.14397928  0.13954185     0.76600
O177        O  0.78581762  0.09047923  0.24853983    -0.56800
O178        O  0.73369397  0.15542355  0.16752506    -0.46900
O179        O  0.73668251  0.08223077  0.23418376    -0.53300
C180        C  0.69919623  0.13845878  0.28961149     0.86800
O181        O  0.77260205  0.18305595  0.24907885    -0.55200
O182        O  0.77627162  0.12814475  0.16199884    -0.58500
In183      In  0.90129659  0.27109444  0.39276503     1.36900
C184        C  0.96407747  0.26207136  0.39689301     0.79200
O185        O  0.91082609  0.28961779  0.31553642    -0.59200
O186        O  0.89240376  0.32197843  0.37042010    -0.50100
C187        C  0.85655753  0.23376521  0.35213228     0.71900
O188        O  0.88495910  0.22469483  0.35812146    -0.45000
C189        C  0.88785761  0.27411125  0.49088394     0.76600
O190        O  0.94515234  0.24034712  0.38282986    -0.56800
O191        O  0.88242074  0.29698071  0.46155150    -0.46900
O192        O  0.95101476  0.28805867  0.40905135    -0.53300
C193        C  0.90226643  0.31771585  0.32588590     0.86800
O194        O  0.85064686  0.26145188  0.36829516    -0.55200
O195        O  0.89904027  0.24949000  0.46999220    -0.58500
In196      In  0.93944959  0.44338480  0.20949892     1.36900
C197        C  0.92661528  0.50420312  0.22765927     0.79200
O198        O  0.98598941  0.42821599  0.24568917    -0.59200
O199        O  0.98743581  0.45847332  0.18193242    -0.50100
C200        C  0.91197281  0.39941405  0.26678855     0.71900
O201        O  0.91286676  0.42838156  0.27949005    -0.45000
C202        C  0.92790455  0.43279766  0.11291725     0.76600
O203        O  0.90946297  0.48735452  0.19888704    -0.56800
O204        O  0.95155413  0.42113858  0.13557084    -0.46900
O205        O  0.94776771  0.48912596  0.25140005    -0.53300
C206        C  0.00289143  0.44321195  0.21447075     0.86800
O207        O  0.92330015  0.39349486  0.22385337    -0.55200
O208        O  0.90827845  0.44757921  0.14058783    -0.58500
In209      In  0.12132614  0.27467069  0.75078089     1.36900
C210        C  0.05801562  0.27124054  0.75040104     0.79200
O211        O  0.11660174  0.29309010  0.82936963    -0.59200
O212        O  0.13358776  0.32539668  0.77418545    -0.50100
C213        C  0.16167614  0.23230920  0.78963650     0.71900
O214        O  0.13233223  0.22673923  0.78436700    -0.45000
C215        C  0.13335477  0.27499777  0.65160429     0.76600
O216        O  0.07528308  0.24826785  0.76413222    -0.56800
O217        O  0.14264564  0.29711734  0.68059718    -0.46900
O218        O  0.07296346  0.29572002  0.73654193    -0.53300
C219        C  0.12583841  0.32091904  0.81964248     0.86800
O220        O  0.17077723  0.25897437  0.77337303    -0.55200
O221        O  0.11915310  0.25252099  0.67334065    -0.58500
In222      In  0.26439060  0.12978666  0.89758218     1.36900
C223        C  0.26044358  0.06656547  0.90111458     0.79200
O224        O  0.28247291  0.12498199  0.81881349    -0.59200
O225        O  0.31503308  0.14189544  0.87427972    -0.50100
C226        C  0.22275976  0.17019735  0.85788950     0.71900
O227        O  0.21809634  0.14050889  0.85854119    -0.45000
C228        C  0.26449018  0.14355592  0.99593180     0.76600
O229        O  0.23680158  0.08376512  0.89021646    -0.56800
O230        O  0.28807597  0.14942959  0.96795285    -0.46900
O231        O  0.28577832  0.08153191  0.91076060    -0.53300
C232        C  0.31047878  0.13385377  0.82881014     0.86800
O233        O  0.24823494  0.17942571  0.87869969    -0.55200
O234        O  0.24071034  0.13180117  0.97355998    -0.58500
In235      In  0.43375860  0.09891225  0.70126319     1.36900
C236        C  0.49449175  0.11048138  0.72049400     0.79200
O237        O  0.41353395  0.05180201  0.72884259    -0.59200
O238        O  0.45340061  0.05127814  0.67964498    -0.50100
C239        C  0.39121017  0.12609272  0.76342660     0.71900
O240        O  0.42033921  0.12385983  0.77441712    -0.45000
C241        C  0.42558711  0.10947271  0.60345590     0.76600
O242        O  0.47796342  0.12916885  0.69401296    -0.56800
O243        O  0.41329021  0.08621864  0.62600021    -0.46900
O244        O  0.47902043  0.08873468  0.74215573    -0.53300
C245        C  0.43350891  0.03532753  0.70438325     0.86800
O246        O  0.38442562  0.11658493  0.71959706    -0.55200
O247        O  0.43927438  0.12955352  0.63176865    -0.58500
In248      In  0.09424508  0.44093544  0.95618788     1.36900
C249        C  0.10586672  0.50190824  0.93740144     0.79200
O250        O  0.04705708  0.42133206  0.92859685    -0.59200
O251        O  0.04687363  0.45894158  0.98263324    -0.50100
C252        C  0.11939071  0.40061862  0.88859794     0.71900
O253        O  0.11421023  0.42944118  0.87888320    -0.45000
C254        C  0.10672267  0.42836704  0.05265847     0.76600
O255        O  0.12388794  0.48559270  0.96535328    -0.56800
O256        O  0.08260596  0.41786521  0.02960455    -0.46900
O257        O  0.08407756  0.48636171  0.91569457    -0.53300
C258        C  0.03078791  0.44010819  0.95560210     0.86800
O259        O  0.11418329  0.39318897  0.93374503    -0.55200
O260        O  0.12657416  0.44286608  0.02521434    -0.58500
In261      In  0.12880929  0.76677365  0.75841661     1.36900
C262        C  0.06561936  0.77292220  0.75096933     0.79200
O263        O  0.13542164  0.78925022  0.68256838    -0.59200
O264        O  0.14708391  0.74019796  0.68988554    -0.50100
C265        C  0.17073370  0.80636364  0.80057328     0.71900
O266        O  0.14143195  0.81286299  0.79742296    -0.45000
C267        C  0.12989961  0.72144681  0.82763807     0.76600
O268        O  0.08361658  0.79646694  0.75951974    -0.56800
O269        O  0.13941305  0.71642214  0.78305022    -0.46900
O270        O  0.07981171  0.74670408  0.74543745    -0.53300
C271        C  0.14466014  0.76395740  0.66131760     0.86800
O272        O  0.17883517  0.78003092  0.78123212    -0.55200
O273        O  0.12090982  0.74959207  0.83666103    -0.58500
In274      In  0.27531818  0.90716941  0.91077930     1.36900
C275        C  0.26537348  0.96980203  0.90555650     0.79200
O276        O  0.25025673  0.91063762  0.98562216    -0.59200
O277        O  0.29169470  0.88168336  0.98093951    -0.50100
C278        C  0.23402861  0.86658039  0.86936231     0.71900
O279        O  0.22955985  0.89628142  0.87007613    -0.45000
C280        C  0.33062346  0.90347974  0.85980663     0.76600
O281        O  0.24928686  0.95006906  0.88013408    -0.56800
O282        O  0.32919588  0.90798640  0.90666765    -0.46900
O283        O  0.28642614  0.95770346  0.93326409    -0.53300
C284        C  0.26993028  0.89319056  0.00828675     0.86800
O285        O  0.25940455  0.85738604  0.89031335    -0.55200
O286        O  0.30382064  0.89997677  0.83896366    -0.58500
In287      In  0.09609386  0.59814912  0.95359739     1.36900
C288        C  0.10666818  0.53679616  0.93606589     0.79200
O289        O  0.12715861  0.59490073  0.02350422    -0.59200
O290        O  0.08250109  0.61866332  0.02828932    -0.50100
C291        C  0.12335230  0.64119492  0.89370197     0.71900
O292        O  0.12454230  0.61173234  0.88425670    -0.45000
C293        C  0.03271392  0.59881310  0.94717888     0.76600
O294        O  0.12461056  0.55317983  0.96432292    -0.56800
O295        O  0.04803885  0.58165386  0.97737092    -0.46900
O296        O  0.08624530  0.55256682  0.91180961    -0.53300
C297        C  0.10630899  0.60777690  0.05133605     0.86800
O298        O  0.11055604  0.64813911  0.93525715    -0.55200
O299        O  0.04975405  0.61585078  0.91887205    -0.58500
In300      In  0.43549181  0.93692122  0.69570698     1.36900
C301        C  0.49625765  0.92326906  0.71520681     0.79200
O302        O  0.44055447  0.90972225  0.62224007    -0.59200
O303        O  0.41470740  0.95342545  0.62303770    -0.50100
C304        C  0.39063419  0.90869646  0.75170806     0.71900
O305        O  0.41587847  0.92002894  0.77041792    -0.45000
C306        C  0.43386754  0.00042822  0.70308815     0.76600
O307        O  0.48010993  0.90694247  0.68430022    -0.56800
O308        O  0.45507014  0.98531008  0.67935696    -0.46900
O309        O  0.48031382  0.94312127  0.74055277    -0.53300
C310        C  0.42640144  0.93097329  0.59719009     0.86800
O311        O  0.38983609  0.90901708  0.70435620    -0.55200
O312        O  0.41311192  0.98315164  0.72384581    -0.58500
In313      In  0.59243308  0.93671864  0.70001103     1.36900
C314        C  0.53126326  0.92363717  0.71590387     0.79200
O315        O  0.61129434  0.98362917  0.73177265    -0.59200
O316        O  0.57364088  0.98430520  0.67833443    -0.50100
C317        C  0.63453546  0.91050610  0.76305292     0.71900
O318        O  0.60579494  0.91488269  0.77493744    -0.45000
C319        C  0.60425789  0.92929755  0.60234478     0.76600
O320        O  0.54836956  0.90616420  0.68784539    -0.56800
O321        O  0.61484223  0.95223224  0.62823714    -0.46900
O322        O  0.54624908  0.94496799  0.73974708    -0.53300
C323        C  0.59229977  0.00015098  0.70588605     0.86800
O324        O  0.64086283  0.91670446  0.71779616    -0.55200
O325        O  0.59054594  0.90771106  0.62735713    -0.58500
In326      In  0.90522458  0.76113045  0.74514249     1.36900
C327        C  0.96844848  0.76990862  0.74599923     0.79200
O328        O  0.90450766  0.73280393  0.81722406    -0.59200
O329        O  0.89653261  0.70795557  0.74869090    -0.50100
C330        C  0.86330910  0.79984801  0.79056502     0.71900
O331        O  0.89280660  0.80081870  0.79939571    -0.45000
C332        C  0.89300992  0.76706244  0.64709015     0.76600
O333        O  0.94919071  0.79090073  0.76125219    -0.56800
O334        O  0.88475091  0.74293412  0.67186993    -0.46900
O335        O  0.95558893  0.74463370  0.73018683    -0.53300
C336        C  0.89949657  0.70632592  0.79581714     0.86800
O337        O  0.85498923  0.77916228  0.75843604    -0.55200
O338        O  0.90641738  0.78872712  0.67252704    -0.58500
In339      In  0.76298353  0.90767203  0.89524219     1.36900
C340        C  0.77225941  0.97067248  0.89434066     0.79200
O341        O  0.74425358  0.91051085  0.81640288    -0.59200
O342        O  0.71113479  0.89927346  0.87402681    -0.50100
C343        C  0.80224245  0.86312930  0.85826065     0.71900
O344        O  0.80933115  0.89231607  0.85976819    -0.45000
C345        C  0.76101307  0.89678545  0.99446669     0.76600
O346        O  0.79356537  0.95121898  0.88080387    -0.56800
O347        O  0.73756336  0.89136134  0.96590125    -0.46900
O348        O  0.74657878  0.95808223  0.90859701    -0.53300
C349        C  0.71575086  0.90444004  0.82775984     0.86800
O350        O  0.77546399  0.85633173  0.87704501    -0.55200
O351        O  0.78566735  0.90658564  0.97231743    -0.58500
In352      In  0.93433151  0.59776218  0.95324499     1.36900
C353        C  0.91961563  0.53682361  0.93485184     0.79200
O354        O  0.98079752  0.61656557  0.92001127    -0.59200
O355        O  0.98247662  0.58046789  0.97548463    -0.50100
C356        C  0.90760268  0.64531695  0.90144213     0.71900
O357        O  0.91543139  0.61926679  0.88080370    -0.45000
C358        C  0.92819419  0.60675348  0.05157779     0.76600
O359        O  0.90303148  0.55411245  0.96375545    -0.56800
O360        O  0.95114452  0.61771044  0.02639517    -0.46900
O361        O  0.94024812  0.55178230  0.90988044    -0.53300
C362        C  0.99783757  0.59864682  0.94689745     0.86800
O363        O  0.91048825  0.64565149  0.94855776    -0.55200
O364        O  0.90656054  0.59328463  0.02592365    -0.58500
In365      In  0.59016202  0.09825367  0.69977193     1.36900
C366        C  0.52937730  0.11021137  0.71963914     0.79200
O367        O  0.58681157  0.12835826  0.62945970    -0.59200
O368        O  0.61032344  0.08348500  0.62554990    -0.50100
C369        C  0.63361001  0.12574933  0.75918222     0.71900
O370        O  0.60479346  0.12335397  0.77197477    -0.45000
C371        C  0.59175403  0.03499552  0.70579160     0.76600
O372        O  0.54574012  0.12845951  0.69218388    -0.56800
O373        O  0.57293059  0.04995835  0.67757779    -0.46900
O374        O  0.54491309  0.08842964  0.74094304    -0.53300
C375        C  0.60011727  0.10741440  0.60224201     0.86800
O376        O  0.63943245  0.11647528  0.71493385    -0.55200
O377        O  0.60988420  0.05235410  0.73228443    -0.58500
In378      In  0.89798188  0.28249109  0.74269926     1.36900
C379        C  0.96095475  0.27452434  0.74726450     0.79200
O380        O  0.90381721  0.25880381  0.66693090    -0.59200
O381        O  0.87325661  0.29905920  0.67170607    -0.50100
C382        C  0.85739665  0.24156676  0.78443108     0.71900
O383        O  0.88720461  0.23933688  0.78908067    -0.45000
C384        C  0.89404212  0.33629740  0.79702903     0.76600
O385        O  0.94169811  0.25340723  0.76172729    -0.56800
O386        O  0.89577816  0.33597679  0.74968454    -0.46900
O387        O  0.94818538  0.29941038  0.73042455    -0.53300
C388        C  0.88617496  0.27819031  0.64404992     0.86800
O389        O  0.84797231  0.26463676  0.75800321    -0.55200
O390        O  0.89275906  0.30905712  0.81669608    -0.58500
In391      In  0.76212051  0.13039435  0.88842110     1.36900
C392        C  0.77228906  0.06761778  0.89200159     0.79200
O393        O  0.78430540  0.13633573  0.96502417    -0.59200
O394        O  0.73435699  0.14412831  0.95791190    -0.50100
C395        C  0.79975764  0.17555210  0.85095064     0.71900
O396        O  0.80644155  0.14629626  0.84787315    -0.45000
C397        C  0.71535509  0.13238812  0.82075724     0.76600
O398        O  0.79385081  0.08689681  0.87915077    -0.56800
O399        O  0.71133499  0.14123451  0.86587265    -0.46900
O400        O  0.74610177  0.08032747  0.90362026    -0.53300
C401        C  0.75829643  0.14288694  0.98657924     0.86800
O402        O  0.77442075  0.18193465  0.87452781    -0.55200
O403        O  0.74324131  0.12338976  0.81031217    -0.58500
In404      In  0.93248077  0.44130190  0.96017068     1.36900
C405        C  0.91942004  0.50174801  0.93688517     0.79200
O406        O  0.90597196  0.44845304  0.03332109    -0.59200
O407        O  0.94739534  0.41889282  0.03199659    -0.50100
C408        C  0.90435654  0.39483549  0.90656754     0.71900
O409        O  0.91401044  0.42036846  0.88704615    -0.45000
C410        C  0.99594334  0.44031753  0.95623599     0.76600
O411        O  0.90225512  0.48613266  0.96705472    -0.56800
O412        O  0.98050666  0.45924830  0.98397580    -0.46900
O413        O  0.94017354  0.48537909  0.91419728    -0.53300
C414        C  0.92615580  0.43246367  0.05799973     0.86800
O415        O  0.90648323  0.39427016  0.95376039    -0.55200
O416        O  0.97902010  0.42176453  0.92983798    -0.58500
C417        C  0.89563111  0.36624249  0.82645110    -0.14800
C418        C  0.89403584  0.36673003  0.87698933    -0.30000
H419        H  0.90123990  0.38798592  0.80621674     0.14200
H420        H  0.88857760  0.34496729  0.89728946     0.14800
C421        C  0.83598985  0.21933206  0.80794841    -0.11600
C422        C  0.81927809  0.19975106  0.82820880    -0.13200
C423        C  0.65886586  0.13590035  0.79449614    -0.14800
C424        C  0.68968342  0.13089121  0.78301995    -0.30000
H425        H  0.65209420  0.14363867  0.83218356     0.14200
H426        H  0.69612865  0.12219108  0.74568713     0.14800
C427        C  0.77655093  0.03355702  0.89259455    -0.11600
C428        C  0.77642001  0.00474208  0.89320016    -0.13200
C429        C  0.89909819  0.67561468  0.82291344    -0.14800
C430        C  0.89879448  0.67437039  0.87348639    -0.30000
H431        H  0.90178106  0.65381271  0.80091366     0.14200
H432        H  0.89574136  0.69624208  0.89522445     0.14800
C433        C  0.84097153  0.82096354  0.81525233    -0.11600
C434        C  0.82300686  0.83958837  0.83569340    -0.13200
C435        C  0.65917587  0.90166754  0.80028603    -0.14800
C436        C  0.69030943  0.90495534  0.78932215    -0.30000
H437        H  0.65176685  0.89637631  0.83855186     0.14200
H438        H  0.69741009  0.91113307  0.75123051     0.14800
C439        C  0.36116262  0.90428018  0.83188230    -0.14800
C440        C  0.36281299  0.89871732  0.78199222    -0.30000
H441        H  0.38220622  0.91258770  0.85209108     0.14200
H442        H  0.34168651  0.89059649  0.76181024     0.14800
C443        C  0.03137016  0.77523248  0.74849980    -0.11600
C444        C  0.00255943  0.77409578  0.74710520    -0.13200
C445        C  0.12758568  0.69664468  0.86643240    -0.14800
C446        C  0.13369806  0.66566646  0.85743705    -0.30000
H447        H  0.11767944  0.70392049  0.90259528     0.14200
H448        H  0.14307542  0.65801673  0.82112910     0.14800
C449        C  0.21191505  0.84492641  0.84572838    -0.11600
C450        C  0.19320010  0.82728647  0.82501360    -0.13200
C451        C  0.26055082  0.00365153  0.90303233    -0.11600
C452        C  0.25904077  0.03236391  0.90199951    -0.13200
C453        C  0.36678360  0.13645768  0.80027188    -0.14800
C454        C  0.33560658  0.13278261  0.78995653    -0.30000
H455        H  0.37441103  0.14328474  0.83798456     0.14200
H456        H  0.32833244  0.12508966  0.75245822     0.14800
C457        C  0.99499418  0.27082575  0.74969474    -0.11600
C458        C  0.02376500  0.26989930  0.75055945    -0.13200
C459        C  0.12597191  0.34576304  0.85909479    -0.14800
C460        C  0.12816680  0.37704706  0.84939699    -0.30000
H461        H  0.12046210  0.33801571  0.89712254     0.14200
H462        H  0.13232704  0.38520479  0.81117309     0.14800
C463        C  0.18302653  0.21015094  0.81342590    -0.11600
C464        C  0.20093106  0.19188037  0.83416419    -0.13200
C465        C  0.88309478  0.27620675  0.54455619    -0.11600
C466        C  0.88251103  0.27728003  0.59008614    -0.13200
C467        C  0.90531683  0.34338703  0.28884224    -0.14800
C468        C  0.90081697  0.37421587  0.30083740    -0.30000
H469        H  0.91460580  0.33687414  0.25192004     0.14200
H470        H  0.89227056  0.38098669  0.33807361     0.14800
C471        C  0.75601750  0.14714869  0.04025767    -0.11600
C472        C  0.75512943  0.14752193  0.08572300    -0.13200
C473        C  0.83286919  0.21414411  0.32776665    -0.11600
C474        C  0.81394118  0.19695790  0.30651508    -0.13200
C475        C  0.66831147  0.13968763  0.36813792    -0.14800
C476        C  0.66897157  0.13825997  0.31768932    -0.30000
H477        H  0.69015574  0.14430112  0.38914894     0.14200
H478        H  0.64715658  0.13359474  0.29664989     0.14800
C479        C  0.13772330  0.27434549  0.55185288    -0.11600
C480        C  0.13742289  0.27549184  0.59750983    -0.13200
C481        C  0.99814567  0.25799317  0.39841588    -0.11600
C482        C  0.02695433  0.25734729  0.39934209    -0.13200
C483        C  0.13498868  0.36842756  0.30067003    -0.14800
C484        C  0.12637623  0.33803547  0.29162836    -0.30000
H485        H  0.14573598  0.37514277  0.33651330     0.14200
H486        H  0.11534855  0.33173400  0.25579438     0.14800
C487        C  0.26502344  0.14818574  0.04979595    -0.11600
C488        C  0.26548757  0.14816156  0.09536133    -0.13200
C489        C  0.36480983  0.14280133  0.36519684    -0.14800
C490        C  0.36131713  0.13450209  0.31654737    -0.30000
H491        H  0.34492044  0.15319941  0.38580818     0.14200
H492        H  0.38125676  0.12419720  0.29594370     0.14800
C493        C  0.20965044  0.18956527  0.31417106    -0.11600
C494        C  0.19082132  0.20682174  0.33549926    -0.13200
C495        C  0.88901447  0.76900769  0.59335825    -0.11600
C496        C  0.88908018  0.76980277  0.54786950    -0.13200
C497        C  0.75899895  0.89384351  0.09419515    -0.11600
C498        C  0.75950961  0.89347868  0.04855386    -0.13200
C499        C  0.76971919  0.00781797  0.24337412    -0.11600
C500        C  0.76875535  0.03656857  0.24346313    -0.13200
C501        C  0.69183474  0.91142085  0.35797700    -0.14800
C502        C  0.66077439  0.90524296  0.35034550    -0.30000
H503        H  0.69952772  0.92151642  0.39384644     0.14200
H504        H  0.65268680  0.89576701  0.31431646     0.14800
C505        C  0.82183234  0.84722877  0.31164593    -0.11600
C506        C  0.84020150  0.82995139  0.33315040    -0.13200
C507        C  0.90128851  0.66917599  0.29758480    -0.14800
C508        C  0.90589803  0.70009838  0.28693818    -0.30000
H509        H  0.89299975  0.66226209  0.33474020     0.14200
H510        H  0.91484949  0.70685210  0.25006398     0.14800
C511        C  0.26741201  0.88796902  0.10730710    -0.11600
C512        C  0.26844400  0.88830866  0.06183127    -0.13200
C513        C  0.26167263  0.00303482  0.26150066    -0.11600
C514        C  0.26298238  0.03179633  0.25996216    -0.13200
C515        C  0.33987169  0.90326244  0.36131236    -0.14800
C516        C  0.37058362  0.90452524  0.34713104    -0.30000
H517        H  0.33349094  0.90719471  0.40058436     0.14200
H518        H  0.37703333  0.90172353  0.30766986     0.14800
C519        C  0.14997043  0.76113585  0.56237173    -0.11600
C520        C  0.14997174  0.76207823  0.60785187    -0.13200
C521        C  0.03179354  0.77586552  0.40267644    -0.11600
C522        C  0.00307819  0.77734273  0.40130545    -0.13200
C523        C  0.18742581  0.82166389  0.34239489    -0.11600
C524        C  0.20471838  0.84018266  0.32094310    -0.13200
C525        C  0.13844505  0.66512614  0.29628887    -0.14800
C526        C  0.12714703  0.66956051  0.34323617    -0.30000
H527        H  0.15227302  0.68379591  0.27833230     0.14200
H528        H  0.11274184  0.65117232  0.36080497     0.14800
loop_ 
_geom_bond_atom_site_label_1 
_geom_bond_atom_site_label_2 
_geom_bond_distance 
_geom_bond_site_symmetry_2 
_ccdc_geom_bond_type 
In1           O3   2.257       .  S
In1           O4   2.241       .  S
In1          O12   2.257       .  S
In1           O6   2.252       .  S
In1           O8   2.262       .  S
In1           O9   2.231       .  S
In1          O10   2.244       .  S
In1          O13   2.265       .  S
C2            O8   1.259       .  A
C2           O10   1.257       .  A
C2          C132   1.464       .  S
O3           C11   1.260       .  A
O4           C11   1.259       .  A
C5           O12   1.257       .  A
C5            O6   1.257       .  A
C5          C525   1.474       .  S
C7            O9   1.259       .  A
C7           O13   1.263       .  A
C7          C297   1.464       .  S
C11          C59   1.459       .  S
In14         O16   2.253       .  S
In14         O17   2.253       .  S
In14         O25   2.253       .  S
In14         O19   2.250       .  S
In14         O21   2.258       .  S
In14         O22   2.254       .  S
In14         O23   2.249       .  S
In14         O26   2.237       .  S
C15          O21   1.258       .  A
C15          O23   1.256       .  A
C15         C521   1.434       .  S
O16          C24   1.259       .  A
O17          C24   1.258       .  A
C18          O25   1.259       .  A
C18          O19   1.259       .  A
C18         C523   1.438       .  S
C20          O22   1.261       .  A
C20          O26   1.259       .  A
C20         C519   1.436       .  S
C24         C526   1.474       .  S
In27         O29   2.231       .  S
In27         O30   2.246       .  S
In27         O38   2.249       .  S
In27         O32   2.250       .  S
In27         O34   2.264       .  S
In27         O35   2.256       .  S
In27         O36   2.241       .  S
In27         O39   2.245       .  S
C28          O34   1.261       .  A
C28          O36   1.257       .  A
C28         C513   1.438   1_565  S
O29          C37   1.259       .  A
O30          C37   1.263       .  A
C31          O38   1.260       .  A
C31          O32   1.261       .  A
C31         C524   1.438       .  S
C33          O35   1.260       .  A
C33          O39   1.259       .  A
C33         C511   1.438       .  S
C37         C515   1.468       .  S
In40         O42   2.271       .  S
In40         O43   2.225       .  S
In40         O51   2.239       .  S
In40         O45   2.259       .  S
In40         O47   2.253       .  S
In40         O48   2.228       .  S
In40         O49   2.233       .  S
In40         O52   2.260       .  S
C41          O47   1.262       .  A
C41          O49   1.259       .  A
C41          C93   1.463       .  S
O42          C50   1.262   1_565  A
O43          C50   1.256   1_565  A
C44          O51   1.258       .  A
C44          O45   1.258       .  A
C44         C516   1.471       .  S
C46          O48   1.259       .  A
C46          O52   1.263       .  A
C46         C310   1.462       .  S
C50         C150   1.461       .  S
In53         O55   2.266       .  S
In53         O56   2.224       .  S
In53         O64   2.247       .  S
In53         O58   2.262       .  S
In53         O60   2.245       .  S
In53         O61   2.235       .  S
In53         O62   2.231       .  S
In53         O65   2.259       .  S
C54          O60   1.264       .  A
C54          O62   1.261       .  A
C54         C197   1.462       .  S
O55          C63   1.262       .  A
O56          C63   1.257       .  A
C57          O64   1.257       .  A
C57          O58   1.258       .  A
C57         C507   1.474       .  S
C59          O61   1.257   1_455  A
C59          O65   1.261   1_455  A
C63         C358   1.461       .  S
In66         O68   2.248       .  S
In66         O69   2.267       .  S
In66         O77   2.250       .  S
In66         O71   2.233       .  S
In66         O73   2.252       .  S
In66         O74   2.270       .  S
In66         O75   2.235       .  S
In66         O78   2.226       .  S
C67          O73   1.261       .  A
C67          O75   1.259       .  A
C67         C499   1.435   1_565  S
O68          C76   1.259       .  A
O69          C76   1.263       .  A
C70          O77   1.260       .  A
C70          O71   1.258       .  A
C70         C505   1.431       .  S
C72          O74   1.266       .  A
C72          O78   1.258       .  A
C72         C501   1.473       .  S
C76         C497   1.444       .  S
In79         O81   2.244       .  S
In79         O82   2.256       .  S
In79         O90   2.240       .  S
In79         O84   2.237       .  S
In79         O86   2.252       .  S
In79         O87   2.254       .  S
In79         O88   2.233       .  S
In79         O91   2.235       .  S
C80          O86   1.262       .  A
C80          O88   1.259       .  A
C80         C522   1.434   1_655  S
O81          C89   1.258       .  A
O82          C89   1.262       .  A
C83          O90   1.260       .  A
C83          O84   1.260       .  A
C83         C506   1.431       .  S
C85          O87   1.265       .  A
C85          O91   1.259       .  A
C85         C508   1.473       .  S
C89         C496   1.438       .  S
In92         O94   2.276       .  S
In92         O95   2.229       .  S
In92        O103   2.239       .  S
In92         O97   2.262       .  S
In92         O99   2.256       .  S
In92        O100   2.222       .  S
In92        O101   2.236       .  S
In92        O104   2.262       .  S
C93          O99   1.263       .  A
C93         O101   1.259       .  A
O94         C102   1.262       .  A
O95         C102   1.257       .  A
C96         O103   1.258       .  A
C96          O97   1.258       .  A
C96         C502   1.476       .  S
C98         O100   1.258   1_545  A
C98         O104   1.261   1_545  A
C98         C167   1.456       .  S
C102        C319   1.465       .  S
In105       O107   2.252       .  S
In105       O108   2.254       .  S
In105       O116   2.252       .  S
In105       O110   2.248       .  S
In105       O112   2.265       .  S
In105       O113   2.247       .  S
In105       O114   2.252       .  S
In105       O117   2.258       .  S
C106        O112   1.258       .  A
C106        O114   1.256       .  A
C106        C514   1.439       .  S
O107        C115   1.260       .  A
O108        C115   1.259       .  A
C109        O116   1.261       .  A
C109        O110   1.260       .  A
C109        C493   1.439       .  S
C111        O113   1.257       .  A
C111        O117   1.259       .  A
C111        C490   1.472       .  S
C115        C488   1.440       .  S
In118       O120   2.254       .  S
In118       O121   2.266       .  S
In118       O129   2.258       .  S
In118       O123   2.252       .  S
In118       O125   2.263       .  S
In118       O126   2.259       .  S
In118       O127   2.240       .  S
In118       O130   2.231       .  S
C119        O125   1.262       .  A
C119        O127   1.258       .  A
C119        C482   1.438       .  S
O120        C128   1.259       .  A
O121        C128   1.261       .  A
C122        O129   1.259       .  A
C122        O123   1.259       .  A
C122        C494   1.439       .  S
C124        O126   1.264       .  A
C124        O130   1.259       .  A
C124        C484   1.471       .  S
C128        C479   1.445       .  S
In131       O133   2.277       .  S
In131       O134   2.231       .  S
In131       O142   2.234       .  S
In131       O136   2.276       .  S
In131       O138   2.253       .  S
In131       O139   2.231       .  S
In131       O140   2.237       .  S
In131       O143   2.265       .  S
C132        O138   1.262       .  A
C132        O140   1.260       .  A
O133        C141   1.263       .  A
O134        C141   1.258       .  A
C135        O142   1.257       .  A
C135        O136   1.259       .  A
C135        C483   1.477       .  S
C137        O139   1.257       .  A
C137        O143   1.260       .  A
C137        C206   1.460       .  S
C141        C254   1.470       .  S
In144       O146   2.265       .  S
In144       O147   2.234       .  S
In144       O155   2.256       .  S
In144       O149   2.249       .  S
In144       O151   2.262       .  S
In144       O152   2.234       .  S
In144       O153   2.255       .  S
In144       O156   2.268       .  S
C145        O151   1.259       .  A
C145        O153   1.258       .  A
C145        C158   1.467       .  S
O146        C154   1.263       .  A
O147        C154   1.259       .  A
C148        O155   1.256       .  A
C148        O149   1.258       .  A
C148        C489   1.473       .  S
C150        O152   1.259       .  A
C150        O156   1.261       .  A
C154        C241   1.465       .  S
In157       O159   2.265       .  S
In157       O160   2.222       .  S
In157       O168   2.243       .  S
In157       O162   2.250       .  S
In157       O164   2.254       .  S
In157       O165   2.225       .  S
In157       O166   2.247       .  S
In157       O169   2.254       .  S
C158        O164   1.260       .  A
C158        O166   1.259       .  A
O159        C167   1.261       .  A
O160        C167   1.257       .  A
C161        O168   1.255       .  A
C161        O162   1.260       .  A
C161        C475   1.469       .  S
C163        O165   1.259       .  A
C163        O169   1.263       .  A
C163        C375   1.460       .  S
In170       O172   2.246       .  S
In170       O173   2.243       .  S
In170       O181   2.262       .  S
In170       O175   2.243       .  S
In170       O177   2.262       .  S
In170       O178   2.255       .  S
In170       O179   2.243       .  S
In170       O182   2.244       .  S
C171        O177   1.259       .  A
C171        O179   1.257       .  A
C171        C500   1.435       .  S
O172        C180   1.261       .  A
O173        C180   1.258       .  A
C174        O181   1.261       .  A
C174        O175   1.258       .  A
C174        C474   1.439       .  S
C176        O178   1.259       .  A
C176        O182   1.258       .  A
C176        C472   1.436       .  S
C180        C476   1.469       .  S
In183       O185   2.232       .  S
In183       O186   2.249       .  S
In183       O194   2.254       .  S
In183       O188   2.251       .  S
In183       O190   2.259       .  S
In183       O191   2.259       .  S
In183       O192   2.242       .  S
In183       O195   2.248       .  S
C184        O190   1.261       .  A
C184        O192   1.259       .  A
C184        C481   1.438       .  S
O185        C193   1.259       .  A
O186        C193   1.263       .  A
C187        O194   1.259       .  A
C187        O188   1.259       .  A
C187        C473   1.439       .  S
C189        O191   1.260       .  A
C189        O195   1.258       .  A
C189        C465   1.440       .  S
C193        C467   1.468       .  S
In196       O198   2.266       .  S
In196       O199   2.232       .  S
In196       O207   2.233       .  S
In196       O201   2.258       .  S
In196       O203   2.250       .  S
In196       O204   2.224       .  S
In196       O205   2.236       .  S
In196       O208   2.254       .  S
C197        O203   1.261       .  A
C197        O205   1.260       .  A
O198        C206   1.261   1_655  A
O199        C206   1.257   1_655  A
C200        O207   1.257       .  A
C200        O201   1.258       .  A
C200        C468   1.471       .  S
C202        O204   1.259       .  A
C202        O208   1.262       .  A
C202        C414   1.458       .  S
In209       O211   2.226       .  S
In209       O212   2.269       .  S
In209       O220   2.256       .  S
In209       O214   2.251       .  S
In209       O216   2.253       .  S
In209       O217   2.275       .  S
In209       O218   2.243       .  S
In209       O221   2.250       .  S
C210        O216   1.260       .  A
C210        O218   1.259       .  A
C210        C458   1.436       .  S
O211        C219   1.257       .  A
O212        C219   1.264       .  A
C213        O220   1.260       .  A
C213        O214   1.259       .  A
C213        C463   1.438       .  S
C215        O217   1.262       .  A
C215        O221   1.258       .  A
C215        C480   1.445       .  S
C219        C459   1.471       .  S
In222       O224   2.230       .  S
In222       O225   2.268       .  S
In222       O233   2.248       .  S
In222       O227   2.245       .  S
In222       O229   2.256       .  S
In222       O230   2.263       .  S
In222       O231   2.242       .  S
In222       O234   2.247       .  S
C223        O229   1.260       .  A
C223        O231   1.258       .  A
C223        C452   1.435       .  S
O224        C232   1.258       .  A
O225        C232   1.264       .  A
C226        O233   1.261       .  A
C226        O227   1.260       .  A
C226        C464   1.438       .  S
C228        O230   1.261       .  A
C228        O234   1.258       .  A
C228        C487   1.441   1_556  S
C232        C454   1.474       .  S
In235       O237   2.274       .  S
In235       O238   2.230       .  S
In235       O246   2.248       .  S
In235       O240   2.268       .  S
In235       O242   2.253       .  S
In235       O243   2.233       .  S
In235       O244   2.227       .  S
In235       O247   2.266       .  S
C236        O242   1.263       .  A
C236        O244   1.260       .  A
C236        C366   1.462       .  S
O237        C245   1.262       .  A
O238        C245   1.256       .  A
C239        O246   1.259       .  A
C239        O240   1.258       .  A
C239        C453   1.478       .  S
C241        O243   1.258       .  A
C241        O247   1.261       .  A
C245        C306   1.463       .  S
In248       O250   2.260       .  S
In248       O251   2.234       .  S
In248       O259   2.245       .  S
In248       O253   2.263       .  S
In248       O255   2.258       .  S
In248       O256   2.235   1_556  S
In248       O257   2.234       .  S
In248       O260   2.278   1_556  S
C249        O255   1.263       .  A
C249        O257   1.258       .  A
C249        C288   1.463       .  S
O250        C258   1.260       .  A
O251        C258   1.258       .  A
C252        O259   1.259       .  A
C252        O253   1.256       .  A
C252        C460   1.476       .  S
C254        O256   1.259       .  A
C254        O260   1.264       .  A
C258        C410   1.460   1_455  S
In261       O263   2.245       .  S
In261       O264   2.259       .  S
In261       O272   2.250       .  S
In261       O266   2.247       .  S
In261       O268   2.266       .  S
In261       O269   2.258       .  S
In261       O270   2.244       .  S
In261       O273   2.227       .  S
C262        O268   1.261       .  A
C262        O270   1.257       .  A
C262        C443   1.440       .  S
O263        C271   1.258       .  A
O264        C271   1.260       .  A
C265        O272   1.260       .  A
C265        O266   1.260       .  A
C265        C450   1.437       .  S
C267        O269   1.264       .  A
C267        O273   1.260       .  A
C267        C445   1.471       .  S
C271        C520   1.437       .  S
In274       O276   2.250       .  S
In274       O277   2.259       .  S
In274       O285   2.253       .  S
In274       O279   2.245       .  S
In274       O281   2.259       .  S
In274       O282   2.260       .  S
In274       O283   2.245       .  S
In274       O286   2.267       .  S
C275        O281   1.259       .  A
C275        O283   1.257       .  A
C275        C451   1.435   1_565  S
O276        C284   1.258   1_556  A
O277        C284   1.259   1_556  A
C278        O285   1.261       .  A
C278        O279   1.259       .  A
C278        C449   1.437       .  S
C280        O282   1.257       .  A
C280        O286   1.259       .  A
C280        C439   1.479       .  S
C284        C512   1.438       .  S
In287       O289   2.270   1_556  S
In287       O290   2.228   1_556  S
In287       O298   2.238       .  S
In287       O292   2.268       .  S
In287       O294   2.251       .  S
In287       O295   2.221       .  S
In287       O296   2.240       .  S
In287       O299   2.275       .  S
C288        O294   1.261       .  A
C288        O296   1.261       .  A
O289        C297   1.262       .  A
O290        C297   1.257       .  A
C291        O298   1.258       .  A
C291        O292   1.259       .  A
C291        C446   1.476       .  S
C293        O295   1.257       .  A
C293        O299   1.261       .  A
C293        C362   1.461   1_455  S
In300       O302   2.260       .  S
In300       O303   2.230       .  S
In300       O311   2.254       .  S
In300       O305   2.264       .  S
In300       O307   2.271       .  S
In300       O308   2.233       .  S
In300       O309   2.237       .  S
In300       O312   2.274       .  S
C301        O307   1.261       .  A
C301        O309   1.258       .  A
C301        C314   1.467       .  S
O302        C310   1.263       .  A
O303        C310   1.259       .  A
C304        O311   1.257       .  A
C304        O305   1.259       .  A
C304        C440   1.478       .  S
C306        O308   1.257   1_545  A
C306        O312   1.261   1_545  A
In313       O315   2.275       .  S
In313       O316   2.224       .  S
In313       O324   2.247       .  S
In313       O318   2.264       .  S
In313       O320   2.268       .  S
In313       O321   2.224       .  S
In313       O322   2.229       .  S
In313       O325   2.272       .  S
C314        O320   1.263       .  A
C314        O322   1.259       .  A
O315        C323   1.261   1_565  A
O316        C323   1.256   1_565  A
C317        O324   1.258       .  A
C317        O318   1.258       .  A
C317        C435   1.478       .  S
C319        O321   1.258       .  A
C319        O325   1.264       .  A
C323        C371   1.461       .  S
In326       O328   2.258       .  S
In326       O329   2.261       .  S
In326       O337   2.263       .  S
In326       O331   2.252       .  S
In326       O333   2.263       .  S
In326       O334   2.252       .  S
In326       O335   2.255       .  S
In326       O338   2.255       .  S
C327        O333   1.258       .  A
C327        O335   1.258       .  A
C327        C444   1.440   1_655  S
O328        C336   1.260       .  A
O329        C336   1.258       .  A
C330        O337   1.260       .  A
C330        O331   1.258       .  A
C330        C433   1.442       .  S
C332        O334   1.259       .  A
C332        O338   1.259       .  A
C332        C495   1.438       .  S
C336        C429   1.479       .  S
In339       O341   2.237       .  S
In339       O342   2.270       .  S
In339       O350   2.263       .  S
In339       O344   2.250       .  S
In339       O346   2.265       .  S
In339       O347   2.266       .  S
In339       O348   2.247       .  S
In339       O351   2.255       .  S
C340        O346   1.259       .  A
C340        O348   1.258       .  A
C340        C428   1.439   1_565  S
O341        C349   1.258       .  A
O342        C349   1.263       .  A
C343        O350   1.261       .  A
C343        O344   1.259       .  A
C343        C434   1.442       .  S
C345        O347   1.260       .  A
C345        O351   1.259       .  A
C345        C498   1.444   1_556  S
C349        C436   1.475       .  S
In352       O354   2.280       .  S
In352       O355   2.224       .  S
In352       O363   2.246       .  S
In352       O357   2.271       .  S
In352       O359   2.270       .  S
In352       O360   2.221   1_556  S
In352       O361   2.251       .  S
In352       O364   2.261   1_556  S
C353        O359   1.260       .  A
C353        O361   1.259       .  A
C353        C405   1.471       .  S
O354        C362   1.261       .  A
O355        C362   1.256       .  A
C356        O363   1.255       .  A
C356        O357   1.261       .  A
C356        C430   1.477       .  S
C358        O360   1.259       .  A
C358        O364   1.264       .  A
In365       O367   2.264       .  S
In365       O368   2.226       .  S
In365       O376   2.236       .  S
In365       O370   2.263       .  S
In365       O372   2.261       .  S
In365       O373   2.224       .  S
In365       O374   2.228       .  S
In365       O377   2.270       .  S
C366        O372   1.262       .  A
C366        O374   1.259       .  A
O367        C375   1.262       .  A
O368        C375   1.257       .  A
C369        O376   1.258       .  A
C369        O370   1.258       .  A
C369        C423   1.473       .  S
C371        O373   1.258       .  A
C371        O377   1.262       .  A
In378       O380   2.248       .  S
In378       O381   2.263       .  S
In378       O389   2.262       .  S
In378       O383   2.241       .  S
In378       O385   2.259       .  S
In378       O386   2.250       .  S
In378       O387   2.244       .  S
In378       O390   2.260       .  S
C379        O385   1.259       .  A
C379        O387   1.257       .  A
C379        C457   1.436       .  S
O380        C388   1.258       .  A
O381        C388   1.260       .  A
C382        O389   1.262       .  A
C382        O383   1.258       .  A
C382        C421   1.439       .  S
C384        O386   1.258       .  A
C384        O390   1.260       .  A
C384        C417   1.474       .  S
C388        C466   1.440       .  S
In391       O393   2.246       .  S
In391       O394   2.251       .  S
In391       O402   2.254       .  S
In391       O396   2.249       .  S
In391       O398   2.268       .  S
In391       O399   2.257       .  S
In391       O400   2.242       .  S
In391       O403   2.235       .  S
C392        O398   1.261       .  A
C392        O400   1.257       .  A
C392        C427   1.439       .  S
O393        C401   1.260       .  A
O394        C401   1.260       .  A
C395        O402   1.260       .  A
C395        O396   1.260       .  A
C395        C422   1.439       .  S
C397        O399   1.261       .  A
C397        O403   1.258       .  A
C397        C424   1.470       .  S
C401        C471   1.437   1_556  S
In404       O406   2.254   1_556  S
In404       O407   2.220   1_556  S
In404       O415   2.257       .  S
In404       O409   2.259       .  S
In404       O411   2.272       .  S
In404       O412   2.237       .  S
In404       O413   2.244       .  S
In404       O416   2.261       .  S
C405        O411   1.262       .  A
C405        O413   1.258       .  A
O406        C414   1.264       .  A
O407        C414   1.259       .  A
C408        O415   1.255       .  A
C408        O409   1.259       .  A
C408        C418   1.475       .  S
C410        O412   1.257       .  A
C410        O416   1.261       .  A
C417        C418   1.342       .  D
C417        H419   1.087       .  S
C418        H420   1.087       .  S
C421        C422   1.208       .  T
C423        C424   1.343       .  D
C423        H425   1.086       .  S
C424        H426   1.087       .  S
C427        C428   1.208       .  T
C429        C430   1.343       .  D
C429        H431   1.086       .  S
C430        H432   1.087       .  S
C433        C434   1.210       .  T
C435        C436   1.344       .  D
C435        H437   1.086       .  S
C436        H438   1.086       .  S
C439        C440   1.344       .  D
C439        H441   1.087       .  S
C440        H442   1.087       .  S
C443        C444   1.208       .  T
C445        C446   1.343       .  D
C445        H447   1.087       .  S
C446        H448   1.086       .  S
C449        C450   1.207       .  T
C451        C452   1.206       .  T
C453        C454   1.343       .  D
C453        H455   1.086       .  S
C454        H456   1.087       .  S
C457        C458   1.206   1_655  T
C459        C460   1.341       .  D
C459        H461   1.087       .  S
C460        H462   1.086       .  S
C463        C464   1.207       .  T
C465        C466   1.208       .  T
C467        C468   1.342       .  D
C467        H469   1.087       .  S
C468        H470   1.086       .  S
C471        C472   1.206       .  T
C473        C474   1.208       .  T
C475        C476   1.339       .  D
C475        H477   1.088       .  S
C476        H478   1.088       .  S
C479        C480   1.212       .  T
C481        C482   1.207   1_655  T
C483        C484   1.344       .  D
C483        H485   1.087       .  S
C484        H486   1.087       .  S
C487        C488   1.209       .  T
C489        C490   1.342       .  D
C489        H491   1.086       .  S
C490        H492   1.086       .  S
C493        C494   1.208       .  T
C495        C496   1.207       .  T
C497        C498   1.211       .  T
C499        C500   1.206       .  T
C501        C502   1.342       .  D
C501        H503   1.087       .  S
C502        H504   1.086       .  S
C505        C506   1.203       .  T
C507        C508   1.342       .  D
C507        H509   1.086       .  S
C508        H510   1.087       .  S
C511        C512   1.207       .  T
C513        C514   1.208       .  T
C515        C516   1.342       .  D
C515        H517   1.087       .  S
C516        H518   1.087       .  S
C519        C520   1.207       .  T
C521        C522   1.205       .  T
C523        C524   1.207       .  T
C525        C526   1.344       .  D
C525        H527   1.086       .  S
C526        H528   1.087       .  S
