geometry optimzed in LAMMPS
_audit_creation_date              2020-11-30 
_audit_creation_method            'lammps2cif' 
_symmetry_space_group_name_H-M    'P1' 
_symmetry_Int_Tables_number       1 
_symmetry_cell_setting            triclinic 
loop_ 
_symmetry_equiv_pos_as_xyz 
  x,y,z 
_cell_length_a                    31.02980631 
_cell_length_b                    30.768114351357884 
_cell_length_c                    29.740450165791884 
_cell_angle_alpha                 90.01304281911729 
_cell_angle_beta                  89.8740176530271 
_cell_angle_gamma                 89.69462808188403 
loop_ 
_atom_site_label 
_atom_site_type_symbol 
_atom_site_fract_x 
_atom_site_fract_y 
_atom_site_fract_z 
_atom_site_charge 
C1          C  0.94739214  0.36949163  0.40918234     0.87100
C2          C  0.94685123  0.41953636  0.41468009    -0.53100
C3          C  0.91303466  0.43991196  0.39364826     0.10100
C4          C  0.88283635  0.40809336  0.36913053     0.21000
C5          C  0.90358481  0.35416320  0.42515062    -0.53800
C6          C  0.86956258  0.37617292  0.40691592     0.10200
C7          C  0.94721235  0.36379733  0.35832574    -0.53400
C8          C  0.91307088  0.38234205  0.33703608     0.10700
H9          H  0.97224251  0.43747530  0.43122891     0.15200
H10         H  0.85512908  0.42375626  0.35184220     0.01000
H11         H  0.90062053  0.33337075  0.45454639     0.15500
H12         H  0.97213968  0.34616555  0.34022614     0.15300
C13         C  0.10459159  0.34567660  0.41574293     0.87100
C14         C  0.14872145  0.33667582  0.43487681    -0.53100
C15         C  0.18145325  0.35764514  0.41337254     0.10100
C16         C  0.16693509  0.38286097  0.37059209     0.21000
C17         C  0.10098267  0.39586061  0.41200643    -0.53800
C18         C  0.13366662  0.41530324  0.38878076     0.10200
C19         C  0.10769708  0.33119677  0.36677997    -0.53400
C20         C  0.13957228  0.35058330  0.34264020     0.10700
H21         H  0.15249002  0.32090513  0.46737974     0.15200
H22         H  0.19394518  0.39784706  0.35176887     0.01000
H23         H  0.07497276  0.41484343  0.42681356     0.15500
H24         H  0.08508437  0.30910577  0.35119613     0.15300
C25         C  0.94072533  0.69760394  0.41101136     0.87100
C26         C  0.89635576  0.70978232  0.42828573    -0.53100
C27         C  0.86337797  0.68827437  0.40774939     0.10100
C28         C  0.87805787  0.66007511  0.36709979     0.21000
C29         C  0.94224786  0.64721910  0.41132424    -0.53800
C30         C  0.90959136  0.62764555  0.38869693     0.10200
C31         C  0.93974811  0.70832740  0.36103769    -0.53400
C32         C  0.90716096  0.68952674  0.33760999     0.10700
H33         H  0.89247778  0.72750065  0.45969359     0.15200
H34         H  0.85102919  0.64484165  0.34859621     0.01000
H35         H  0.96709013  0.62808592  0.42783951     0.15500
H36         H  0.96383222  0.72814330  0.34461289     0.15300
C37         C  0.09877941  0.67381972  0.40618396     0.87100
C38         C  0.09784487  0.62369138  0.40927850    -0.53100
C39         C  0.13199559  0.60324916  0.38885637     0.10100
C40         C  0.16344463  0.63495723  0.36589570     0.21000
C41         C  0.14255927  0.68721938  0.42375837    -0.53800
C42         C  0.17656608  0.66545567  0.40495979     0.10200
C43         C  0.10076330  0.68183765  0.35551991    -0.53400
C44         C  0.13445796  0.66244272  0.33406722     0.10700
H45         H  0.07177111  0.60560041  0.42444781     0.15200
H46         H  0.19119076  0.61907780  0.34874367     0.01000
H47         H  0.14539768  0.70689334  0.45397705     0.15500
H48         H  0.07734425  0.70159396  0.33755174     0.15300
C49         C  0.44130842  0.86160062  0.14302468     0.87100
C50         C  0.44132388  0.91203568  0.14188994    -0.53100
C51         C  0.40622634  0.93075992  0.12150698     0.10100
C52         C  0.37354510  0.89657464  0.10486882     0.21000
C53         C  0.39941417  0.84906515  0.16506920    -0.53800
C54         C  0.36375451  0.86870252  0.14746612     0.10200
C55         C  0.43644200  0.84986077  0.09377442    -0.53400
C56         C  0.40131278  0.86734086  0.07345028     0.10700
H57         H  0.46769808  0.93141154  0.15477371     0.15200
H58         H  0.34473933  0.90966646  0.08773411     0.01000
H59         H  0.39915465  0.83083013  0.19638293     0.15500
H60         H  0.46016686  0.83124697  0.07505254     0.15300
C61         C  0.43394173  0.18909201  0.14709606     0.87100
C62         C  0.38903500  0.19930418  0.16352990    -0.53100
C63         C  0.35728210  0.17675844  0.14250569     0.10100
C64         C  0.37368974  0.15013370  0.10134494     0.21000
C65         C  0.43773589  0.13862466  0.14616062    -0.53800
C66         C  0.40657073  0.11849981  0.12142161     0.10200
C67         C  0.43385131  0.20073414  0.09737705    -0.53400
C68         C  0.40260688  0.18072258  0.07313483     0.10700
H69         H  0.38411462  0.21646085  0.19516218     0.15200
H70         H  0.34778553  0.13450240  0.08145862     0.01000
H71         H  0.46331258  0.12037832  0.16241170     0.15500
H72         H  0.45785153  0.22124300  0.08161148     0.15300
C73         C  0.59312071  0.18686481  0.15380788     0.87100
C74         C  0.59324203  0.13665674  0.15208443    -0.53100
C75         C  0.62790442  0.11888988  0.13013788     0.10100
C76         C  0.65904454  0.15288710  0.11092340     0.21000
C77         C  0.63628283  0.19933018  0.17341039    -0.53800
C78         C  0.67098333  0.18022659  0.15288560     0.10200
C79         C  0.59584422  0.19948849  0.10410524    -0.53400
C80         C  0.63005106  0.18243895  0.08130148     0.10700
H81         H  0.56779255  0.11665108  0.16591033     0.15200
H82         H  0.68726786  0.13883554  0.09295550     0.01000
H83         H  0.63838561  0.21672899  0.20514368     0.15500
H84         H  0.57190460  0.21968629  0.08755239     0.15300
C85         C  0.60403855  0.86335789  0.14080892     0.87100
C86         C  0.64799479  0.85136053  0.15890648    -0.53100
C87         C  0.68135805  0.87290702  0.13920733     0.10100
C88         C  0.66757443  0.90064507  0.09798236     0.21000
C89         C  0.60183004  0.91343350  0.14001205    -0.53800
C90         C  0.63514492  0.93283432  0.11814355     0.10200
C91         C  0.60609403  0.85187201  0.09096430    -0.53400
C92         C  0.63896259  0.87110364  0.06824762     0.10700
H93         H  0.65123825  0.83336640  0.19020851     0.16800
H94         H  0.69488244  0.91595817  0.07987434     0.01000
H95         H  0.57597748  0.93250473  0.15489799     0.15500
H96         H  0.58280489  0.83129535  0.07414297     0.15300
O97         O  0.83909759  0.69099339  0.16802072    -0.57200
C98         C  0.90390988  0.69882793  0.28879950     0.75500
O99         O  0.97710523  0.76218803  0.18024829    -0.58300
C100        C  0.85156839  0.69053529  0.12746110     0.75400
C101        C  0.86427344  0.81679773  0.21765835     0.77800
Cd102      Cd  0.90339940  0.73225076  0.19830342     1.37500
O103        O  0.93185826  0.72300871  0.27097461    -0.57200
O104        O  0.87713491  0.80802468  0.17818776    -0.56000
C105        C  0.99693551  0.72610198  0.18307645     0.77800
O106        O  0.87197716  0.78854083  0.24712231    -0.58400
O107        O  0.87427707  0.68533343  0.26306192    -0.56800
O108        O  0.88815029  0.70709734  0.12008052    -0.56800
O109        O  0.97350530  0.69289778  0.18857621    -0.56000
O110        O  0.20112599  0.67325315  0.16554623    -0.57200
C111        C  0.13984777  0.67134001  0.28540377     0.75500
O112        O  0.16241885  0.77334340  0.25143938    -0.58300
C113        C  0.18911808  0.67596014  0.12507018     0.75400
C114        C  0.04478785  0.72287292  0.18363996     0.77800
Cd115      Cd  0.13839224  0.71545884  0.19897782     1.37500
O116        O  0.10699200  0.67396639  0.26045409    -0.57200
O117        O  0.06397344  0.68653976  0.18672961    -0.56000
C118        C  0.17505496  0.79980938  0.22193194     0.77800
O119        O  0.06879605  0.75610347  0.18427596    -0.58400
O120        O  0.17515033  0.68310549  0.26800118    -0.56800
O121        O  0.15308049  0.69429704  0.11881614    -0.56800
O122        O  0.16771112  0.78937472  0.18151209    -0.56000
O123        O  0.20211740  0.66159186  0.04708524    -0.57200
C124        C  0.21298423  0.65643189  0.43531949     0.75500
O125        O  0.32480018  0.68996653  0.02428552    -0.58300
C126        C  0.21592262  0.66026829  0.08695419     0.75400
C127        C  0.27737144  0.54048218  0.01332071     0.77800
Cd128      Cd  0.26847364  0.63484727  0.00845503     1.37500
O129        O  0.22087578  0.68183849  0.46767146    -0.57200
O130        O  0.24556293  0.56035037  0.99679088    -0.56000
C131        C  0.33812330  0.69315051  0.98416649     0.77800
O132        O  0.30766220  0.56403915  0.02803397    -0.58400
O133        O  0.23409879  0.62110966  0.43408718    -0.56800
O134        O  0.25415558  0.64625916  0.09171188    -0.56800
O135        O  0.32402380  0.66534148  0.95674086    -0.56000
O136        O  0.20769347  0.36540180  0.05181994    -0.57200
C137        C  0.21700671  0.37085125  0.44279745     0.75500
O138        O  0.30835857  0.46968749  0.02955611    -0.58300
C139        C  0.21989340  0.36944895  0.09200141     0.75400
C140        C  0.34198412  0.34400123  0.98406061     0.77800
Cd141      Cd  0.27083449  0.39810485  0.01323807     1.37500
O142        O  0.22877759  0.34619916  0.47455192    -0.57200
O143        O  0.32341966  0.36999125  0.95757178    -0.56000
C144        C  0.27737754  0.49254351  0.01469820     0.77800
O145        O  0.33256865  0.34769440  0.02540232    -0.58400
O146        O  0.23298082  0.40864921  0.44180099    -0.56800
O147        O  0.25601757  0.38786324  0.09739295    -0.56800
O148        O  0.24503203  0.47200086  0.00047330    -0.56000
O149        O  0.84018483  0.66897177  0.05105356    -0.57200
C150        C  0.82806769  0.67529433  0.43786114     0.75500
O151        O  0.73742041  0.57511427  0.03436772    -0.58300
C152        C  0.82482645  0.67333440  0.09016754     0.75400
C153        C  0.70274460  0.70289025  0.98337854     0.77800
Cd154      Cd  0.77294202  0.64677674  0.01178119     1.37500
O155        O  0.81819190  0.69849526  0.47152998    -0.57200
O156        O  0.71435594  0.70094422  0.02415116    -0.56000
C157        C  0.76537540  0.55188426  0.01432881     0.77800
O158        O  0.71842621  0.67444249  0.95746504    -0.58400
O159        O  0.81014954  0.63851328  0.43488131    -0.56800
O160        O  0.78530689  0.66378518  0.09460820    -0.56800
O161        O  0.79488174  0.57221262  0.99417489    -0.56000
O162        O  0.84425929  0.39080378  0.05149017    -0.57200
C163        C  0.83337018  0.38522944  0.43773935     0.75500
O164        O  0.73055104  0.34537432  0.02502759    -0.58300
C165        C  0.82887188  0.38783983  0.09073829     0.75400
C166        C  0.76543189  0.50378670  0.01393367     0.77800
Cd167      Cd  0.77603754  0.40922073  0.01161124     1.37500
O168        O  0.82753673  0.36196372  0.47224381    -0.57200
O169        O  0.79303707  0.48367508  0.99062894    -0.56000
C170        C  0.70921160  0.34739757  0.98897452     0.77800
O171        O  0.73973570  0.48034098  0.03654070    -0.58400
O172        O  0.81014210  0.41896496  0.43429441    -0.56800
O173        O  0.78913634  0.39709455  0.09477127    -0.56800
O174        O  0.71341514  0.38175145  0.96611314    -0.56000
O175        O  0.84194715  0.37104348  0.16882157    -0.57200
C176        C  0.90736634  0.37309844  0.28856961     0.75500
O177        O  0.87771136  0.27240140  0.25132781    -0.58300
C178        C  0.85557607  0.37197597  0.12876519     0.75400
C179        C  0.99929202  0.32329998  0.18742543     0.77800
Cd180      Cd  0.90578022  0.33036331  0.20153337     1.37500
O181        O  0.94007566  0.36669245  0.26409720    -0.57200
O182        O  0.97988915  0.35961787  0.18894283    -0.56000
C183        C  0.86776877  0.24566279  0.22097602     0.77800
O184        O  0.97547703  0.28990078  0.18848644    -0.58400
O185        O  0.87121699  0.36550855  0.27066875    -0.56800
O186        O  0.89298610  0.35654008  0.12265263    -0.56800
O187        O  0.87832393  0.25598572  0.18126799    -0.56000
O188        O  0.16213385  0.36459419  0.26543215    -0.57200
C189        C  0.19334219  0.35224237  0.12953604     0.75500
O190        O  0.18638862  0.26525474  0.24551931    -0.58300
C191        C  0.14225024  0.34133685  0.29392686     0.75400
C192        C  0.04710250  0.32024738  0.18784712     0.77800
Cd193      Cd  0.14086391  0.31341641  0.20180247     1.37500
O194        O  0.19948582  0.36222497  0.17031351    -0.57200
O195        O  0.07054512  0.35341913  0.19341651    -0.56000
C196        C  0.18194739  0.23097875  0.22298831     0.77800
O197        O  0.06686347  0.28418888  0.18547342    -0.58400
O198        O  0.16297489  0.32587988  0.12227667    -0.56800
O199        O  0.12250256  0.30874349  0.27864818    -0.56800
O200        O  0.15827001  0.23366337  0.18836280    -0.56000
O201        O  0.70234457  0.87360353  0.28375135    -0.57200
C202        C  0.71516570  0.88580659  0.17107736     0.75500
O203        O  0.80529005  0.98195657  0.26071791    -0.58300
C204        C  0.71169407  0.88078026  0.32433399     0.75400
C205        C  0.83732072  0.85484211  0.22869517     0.77800
Cd206      Cd  0.76491546  0.91126211  0.24752366     1.37500
O207        O  0.72610369  0.86024839  0.20232477    -0.57200
O208        O  0.82228801  0.87958104  0.19865275    -0.56000
C209        C  0.77353164  0.00612502  0.25053803     0.77800
O210        O  0.82412255  0.86146882  0.26846012    -0.58400
O211        O  0.72986408  0.92409200  0.17287719    -0.56800
O212        O  0.74506519  0.90358197  0.33063062    -0.56800
O213        O  0.73921453  0.98675586  0.23979561    -0.56000
O214        O  0.71398677  0.19299857  0.21727183    -0.57200
C215        C  0.72027434  0.17713065  0.33030876     0.75500
O216        O  0.80722704  0.07625977  0.26366788    -0.58300
C217        C  0.70892704  0.17173476  0.18136025     0.75400
C218        C  0.84095200  0.20749600  0.23121193     0.77800
Cd219      Cd  0.76966110  0.14955860  0.25024697     1.37500
O220        O  0.71668157  0.19448120  0.29209320    -0.57200
O221        O  0.82432826  0.18467703  0.20055823    -0.56000
C222        C  0.77503300  0.05425693  0.25080734     0.77800
O223        O  0.82958134  0.19871857  0.27104870    -0.58400
O224        O  0.74743917  0.14628919  0.33305606    -0.56800
O225        O  0.73500724  0.14064268  0.17438175    -0.56800
O226        O  0.74278378  0.07594086  0.23796317    -0.56000
O227        O  0.69244293  0.17399760  0.40647024    -0.57200
C228        C  0.63563637  0.19377086  0.03306812     0.75500
O229        O  0.68850756  0.27344133  0.49213007    -0.58300
C230        C  0.69409000  0.19310224  0.36878408     0.75400
C231        C  0.54951040  0.22806974  0.42347387     0.77800
Cd232      Cd  0.64241227  0.22948950  0.44332090     1.37500
O233        O  0.60769313  0.21748413  0.01412029    -0.57200
O234        O  0.57164423  0.19353204  0.42729522    -0.56000
C235        C  0.68455917  0.30942438  0.47231571     0.77800
O236        O  0.57051298  0.26327440  0.42455572    -0.58400
O237        O  0.66766615  0.18253502  0.00904606    -0.56800
O238        O  0.67169638  0.22740165  0.36545930    -0.56800
O239        O  0.66052228  0.30976591  0.43793266    -0.56000
O240        O  0.35242349  0.17401062  0.40561368    -0.57200
C241        C  0.40226852  0.18705727  0.02411514     0.75500
O242        O  0.47909503  0.26183994  0.42132200    -0.58300
C243        C  0.35779718  0.18395656  0.36473763     0.75400
C244        C  0.36979134  0.30766301  0.46801695     0.77800
Cd245      Cd  0.40786710  0.22575852  0.43710500     1.37500
O246        O  0.43733148  0.19445665  0.00378976    -0.57200
O247        O  0.37452306  0.30003763  0.42639555    -0.56000
C248        C  0.50162547  0.22732839  0.42214450     0.77800
O249        O  0.38558038  0.27992500  0.49434781    -0.58400
O250        O  0.36801112  0.19039160  0.00134671    -0.56800
O251        O  0.38677832  0.21177995  0.35696945    -0.56800
O252        O  0.48082171  0.19214604  0.42545017    -0.56000
O253        O  0.68942118  0.87436259  0.40206815    -0.57200
C254        C  0.64198701  0.86345043  0.01957696     0.75500
O255        O  0.56538206  0.78138507  0.42836686    -0.58300
C256        C  0.68565737  0.86213668  0.36167280     0.75400
C257        C  0.67607400  0.73870418  0.46484301     0.77800
Cd258      Cd  0.63664459  0.82035696  0.43562649     1.37500
O259        O  0.67677919  0.85265251  0.00028108    -0.57200
O260        O  0.66423203  0.76816965  0.49152306    -0.56000
C261        C  0.54218381  0.81517758  0.42422640     0.77800
O262        O  0.66741395  0.74486661  0.42366943    -0.58400
O263        O  0.60782519  0.86115229  0.99652783    -0.56800
O264        O  0.65873074  0.83206199  0.35501314    -0.56800
O265        O  0.56244185  0.85072796  0.42139331    -0.56000
O266        O  0.34420866  0.86464019  0.40905785    -0.57200
C267        C  0.39605996  0.85846824  0.02510455     0.75500
O268        O  0.37128880  0.76187704  0.49818708    -0.58300
C269        C  0.34787502  0.85047299  0.36930601     0.75400
C270        C  0.49422710  0.81379745  0.42601412     0.77800
Cd271      Cd  0.40025875  0.81414574  0.44286767     1.37500
O272        O  0.42905754  0.85759962  0.00004003    -0.57200
O273        O  0.47145923  0.84797974  0.42311382    -0.56000
C274        C  0.36381740  0.73117227  0.47135011     0.77800
O275        O  0.47368708  0.77899469  0.43345649    -0.58400
O276        O  0.36135105  0.84465172  0.00826658    -0.56800
O277        O  0.37601634  0.82116347  0.36339342    -0.56800
O278        O  0.37601774  0.73680368  0.43111350    -0.56000
O279        O  0.33051077  0.85673963  0.29146501    -0.57200
C280        C  0.32776326  0.87610255  0.17929025     0.75500
O281        O  0.21278793  0.84526441  0.27397697    -0.58300
C282        C  0.32123196  0.86665894  0.33152891     0.75400
C283        C  0.26769416  0.99190641  0.25893248     0.77800
Cd284      Cd  0.27156764  0.89656547  0.25343548     1.37500
O285        O  0.32673486  0.85561022  0.21609236    -0.57200
O286        O  0.30214034  0.97009569  0.25587430    -0.56000
C287        C  0.20132559  0.83783753  0.23385995     0.77800
O288        O  0.23320504  0.97003472  0.26107249    -0.58400
O289        O  0.29944368  0.90532381  0.17420395    -0.56800
O290        O  0.28807140  0.89047397  0.33681945    -0.56800
O291        O  0.21735332  0.86205491  0.20400919    -0.56000
O292        O  0.34229771  0.16903505  0.28732573    -0.57200
C293        C  0.32383973  0.16202708  0.17408469     0.75500
O294        O  0.23617074  0.06425187  0.26354314    -0.58300
C295        C  0.33130367  0.16526376  0.32804505     0.75400
C296        C  0.20673302  0.19209940  0.23559307     0.77800
Cd297      Cd  0.27757602  0.13476023  0.25265611     1.37500
O298        O  0.30898658  0.18802149  0.20309836    -0.57200
O299        O  0.21506998  0.16191072  0.20799636    -0.56000
C300        C  0.26906888  0.04006331  0.25824783     0.77800
O301        O  0.22475897  0.18983122  0.27369676    -0.58400
O302        O  0.31430610  0.12241162  0.17901250    -0.56800
O303        O  0.29598455  0.14579700  0.33506906    -0.56800
O304        O  0.30431027  0.05939827  0.25125836    -0.56000
C305        C  0.64040786  0.05162453  0.08452871    -0.11600
C306        C  0.63508704  0.07134510  0.12692929     0.05400
C307        C  0.63390345  0.04490808  0.16570896    -0.06900
C308        C  0.63777500  0.00011495  0.16163327    -0.07700
C309        C  0.64022165  0.98030196  0.11952448    -0.02200
C310        C  0.64195022  0.00607280  0.08051505     0.04600
N311        N  0.64092437  0.98642465  0.03697308     0.67100
H312        H  0.64045366  0.07150800  0.05434391     0.16000
H313        H  0.63631064  0.98028447  0.19181242     0.15700
N314        N  0.62555568  0.06232526  0.20936067     0.74800
O315        O  0.60626293  0.97034585  0.02254099    -0.38600
O316        O  0.67562808  0.97959698  0.01589287    -0.38600
O317        O  0.59113893  0.05166514  0.22900317    -0.39300
O318        O  0.65664733  0.07559334  0.23270740    -0.39300
C319        C  0.48660819  0.18733823  0.21008563    -0.11600
C320        C  0.46759145  0.21156717  0.17566272     0.05400
C321        C  0.49082075  0.24738031  0.15898667    -0.06900
C322        C  0.53580474  0.24506788  0.16085836    -0.07700
C323        C  0.55549301  0.20772363  0.17919574    -0.02200
C324        C  0.53137194  0.18428654  0.21147053     0.04600
N325        N  0.55104869  0.15499927  0.24266580     0.67100
H326        H  0.46741887  0.16476747  0.22955493     0.16000
H327        H  0.55488138  0.26875201  0.14265932     0.15700
N328        N  0.46943486  0.28272972  0.13639073     0.74800
O329        O  0.57395859  0.17041250  0.27375153    -0.38600
O330        O  0.53553214  0.11743884  0.24739459    -0.38600
O331        O  0.43103451  0.29256332  0.14638892    -0.39300
O332        O  0.48866809  0.30423367  0.10634479    -0.39300
C333        C  0.50059042  0.86569157  0.19982563    -0.11600
C334        C  0.47986161  0.84120184  0.16657551     0.05400
C335        C  0.50274530  0.80534269  0.14833967    -0.06900
C336        C  0.54752195  0.80621118  0.14925418    -0.07700
C337        C  0.56806880  0.84244234  0.16761998    -0.02200
C338        C  0.54556271  0.86640790  0.20098735     0.04600
N339        N  0.56742188  0.89565177  0.23094480     0.67100
H340        H  0.48229781  0.88880542  0.21992127     0.16000
H341        H  0.56563936  0.78224032  0.13022258     0.15700
N342        N  0.48151327  0.76909499  0.12812659     0.74800
O343        O  0.54889071  0.92973160  0.24493772    -0.38600
O344        O  0.60513708  0.88716368  0.24420397    -0.38600
O345        O  0.49071936  0.75858365  0.08818091    -0.39300
O346        O  0.46505579  0.74086995  0.15358110    -0.39300
C347        C  0.44200066  0.00161740  0.10346166    -0.11600
C348        C  0.40372572  0.97896010  0.11396365     0.05400
C349        C  0.36535103  0.00349724  0.11950943    -0.06900
C350        C  0.36677289  0.04892197  0.11970950    -0.07700
C351        C  0.40554383  0.07094307  0.11387704    -0.02200
C352        C  0.44281354  0.04723115  0.10239119     0.04600
N353        N  0.48055879  0.06911823  0.08661861     0.67100
H354        H  0.47123506  0.98392576  0.09567983     0.16000
H355        H  0.33780339  0.06651229  0.12543604     0.15700
N356        N  0.32457113  0.98389777  0.12749531     0.74800
O357        O  0.51499875  0.06771661  0.10903695    -0.38600
O358        O  0.47870759  0.09198298  0.05140953    -0.38600
O359        O  0.30652514  0.99126627  0.16473272    -0.39300
O360        O  0.30104631  0.97570127  0.09403165    -0.39300
C361        C  0.99556886  0.69313267  0.47163534    -0.11600
C362        C  0.97673680  0.71869975  0.43810685     0.05400
C363        C  0.00376604  0.74925628  0.41719609    -0.06900
C364        C  0.04715161  0.73767456  0.41155773    -0.07700
C365        C  0.06237153  0.69820356  0.42992656    -0.02200
C366        C  0.03854978  0.68048266  0.46626700     0.04600
N367        N  0.05595878  0.64835985  0.49587126     0.67100
H368        H  0.97522747  0.67504614  0.49458082     0.16000
H369        H  0.06755549  0.75689474  0.38963899     0.15700
N370        N  0.98615540  0.78778130  0.39673392     0.74800
O371        O  0.08439873  0.65943481  0.52380389    -0.38600
O372        O  0.03493748  0.61398699  0.50282691    -0.38600
O373        O  0.95066193  0.80319429  0.41036001    -0.39300
O374        O  0.00547041  0.80620166  0.36460939    -0.39300
C375        C  0.13300791  0.48575075  0.42819155    -0.11600
C376        C  0.13833794  0.46328302  0.38764141     0.05400
C377        C  0.14578823  0.48705848  0.34782281    -0.06900
C378        C  0.14567954  0.53281888  0.34906963    -0.07700
C379        C  0.13762363  0.55519394  0.38948255    -0.02200
C380        C  0.13222516  0.53103095  0.42947153     0.04600
N381        N  0.12491151  0.55159030  0.47188939     0.67100
H382        H  0.12859952  0.46807189  0.45903613     0.16000
H383        H  0.14963811  0.55068945  0.31827809     0.15700
N384        N  0.15026335  0.46560590  0.30545302     0.74800
O385        O  0.08980460  0.54472436  0.49203615    -0.38600
O386        O  0.15679439  0.56453814  0.49430730    -0.38600
O387        O  0.11751097  0.46096477  0.28087645    -0.39300
O388        O  0.18728957  0.46108192  0.28841741    -0.39300
C389        C  0.90672715  0.55822512  0.43067179    -0.11600
C390        C  0.90474336  0.57977456  0.38920998     0.05400
C391        C  0.90242488  0.55525606  0.34937790    -0.06900
C392        C  0.90289882  0.50958802  0.35160564    -0.07700
C393        C  0.90747142  0.48799397  0.39306951    -0.02200
C394        C  0.90889204  0.51290629  0.43298801     0.04600
N395        N  0.91360128  0.49303425  0.47617933     0.67100
H396        H  0.90832488  0.57685431  0.46152672     0.16000
H397        H  0.90243259  0.49096889  0.32063450     0.15700
N398        N  0.90394802  0.57623005  0.30653112     0.74800
O399        O  0.95080511  0.48976410  0.49291113    -0.38600
O400        O  0.88145355  0.49164713  0.50212842    -0.38600
O401        O  0.93860115  0.59324977  0.29313335    -0.39300
O402        O  0.86970007  0.58219347  0.28455451    -0.39300
C403        C  0.00632125  0.36415493  0.46862973    -0.11600
C404        C  0.98375087  0.34520310  0.43254271     0.05400
C405        C  0.99941102  0.30465580  0.41616872    -0.06900
C406        C  0.04267602  0.29418222  0.42306865    -0.07700
C407        C  0.06894711  0.32496341  0.44382285    -0.02200
C408        C  0.04871602  0.35071345  0.47673554     0.04600
N409        N  0.07179297  0.36514617  0.51546106     0.67100
H410        H  0.99221553  0.39001370  0.48864714     0.16000
H411        H  0.05673556  0.26671726  0.40550959     0.15700
N412        N  0.97328574  0.27568451  0.39047702     0.74800
O413        O  0.09496769  0.39864888  0.51358432    -0.38600
O414        O  0.07506364  0.34004655  0.54885376    -0.38600
O415        O  0.98430809  0.26630019  0.35073584    -0.39300
O416        O  0.94816367  0.25048427  0.41114119    -0.39300
C417        C  0.94512931  0.36915264  0.90924571     0.87100
C418        C  0.94414556  0.41918267  0.91471403    -0.53100
C419        C  0.91006762  0.43920351  0.89384491     0.10100
C420        C  0.88012160  0.40711798  0.86942114     0.21000
C421        C  0.90152093  0.35335795  0.92530628    -0.53800
C422        C  0.86724677  0.37520879  0.90737537     0.10200
C423        C  0.94489915  0.36343505  0.85839645    -0.53400
C424        C  0.91055841  0.38169767  0.83720259     0.10700
H425        H  0.96951456  0.43738638  0.93096588     0.15200
H426        H  0.85222342  0.42251104  0.85220856     0.01000
H427        H  0.89889369  0.33256289  0.95473707     0.15500
H428        H  0.96998840  0.34610922  0.84022016     0.15300
C429        C  0.10272137  0.34616132  0.91575877     0.87100
C430        C  0.14677633  0.33749620  0.93523833    -0.53100
C431        C  0.17956091  0.35818692  0.91355075     0.10100
C432        C  0.16518634  0.38301782  0.87051842     0.21000
C433        C  0.09899944  0.39629756  0.91143831    -0.53800
C434        C  0.13178458  0.41558870  0.88824261     0.10200
C435        C  0.10609232  0.33115909  0.86696532    -0.53400
C436        C  0.13805168  0.35038225  0.84281219     0.10700
H437        H  0.15048600  0.32200752  0.96789167     0.15200
H438        H  0.19224739  0.39788858  0.85167525     0.01000
H439        H  0.07289597  0.41537556  0.92593369     0.15500
H440        H  0.08362796  0.30885012  0.85147673     0.15300
C441        C  0.93811102  0.69665609  0.90651113     0.87100
C442        C  0.89465687  0.70958590  0.92577662    -0.53100
C443        C  0.86062567  0.68778398  0.90755568     0.10100
C444        C  0.87319535  0.65868218  0.86681999     0.21000
C445        C  0.93930720  0.64629890  0.90811607    -0.53800
C446        C  0.90547787  0.62654504  0.88759177     0.10200
C447        C  0.93498078  0.70608162  0.85636009    -0.53400
C448        C  0.90135848  0.68685252  0.83517984     0.10700
H449        H  0.89238876  0.72795965  0.95693758     0.15200
H450        H  0.84533984  0.64316739  0.84997043     0.01000
H451        H  0.96485706  0.62740087  0.92375526     0.15500
H452        H  0.95853880  0.72487751  0.83789317     0.15300
C453        C  0.09915282  0.67491221  0.90330693     0.87100
C454        C  0.09764148  0.62479658  0.90740424    -0.53100
C455        C  0.13200071  0.60365268  0.88807354     0.10100
C456        C  0.16432552  0.63466218  0.86544744     0.21000
C457        C  0.14262926  0.68811450  0.92189443    -0.53800
C458        C  0.17681838  0.66565564  0.90434508     0.10200
C459        C  0.10247664  0.68196044  0.85257239    -0.53400
C460        C  0.13639009  0.66184764  0.83246739     0.10700
H461        H  0.07111236  0.60731548  0.92253956     0.15200
H462        H  0.19227699  0.61822251  0.84924204     0.01000
H463        H  0.14498341  0.70826724  0.95181490     0.15500
H464        H  0.07969860  0.70137607  0.83336341     0.15300
C465        C  0.44164777  0.86215553  0.64757922     0.87100
C466        C  0.44117522  0.91254972  0.64608780    -0.53100
C467        C  0.40640785  0.93069892  0.62462500     0.10100
C468        C  0.37442066  0.89614471  0.60744299     0.21000
C469        C  0.39935095  0.84933775  0.66865703    -0.53800
C470        C  0.36391178  0.86839863  0.64988032     0.10200
C471        C  0.43796187  0.85003291  0.59818887    -0.53400
C472        C  0.40305979  0.86700372  0.57686742     0.10700
H473        H  0.46710517  0.93236956  0.65921273     0.15200
H474        H  0.34588966  0.90897163  0.58957632     0.01000
H475        H  0.39849945  0.83140330  0.70014312     0.15500
H476        H  0.46218108  0.83128402  0.58032390     0.15300
C477        C  0.43380508  0.18867404  0.64672614     0.87100
C478        C  0.38883725  0.19868265  0.66313500    -0.53100
C479        C  0.35719717  0.17606926  0.64202294     0.10100
C480        C  0.37374024  0.14957566  0.60083102     0.21000
C481        C  0.43778069  0.13822123  0.64565416    -0.53800
C482        C  0.40670491  0.11804560  0.62086268     0.10200
C483        C  0.43371182  0.20042512  0.59703198    -0.53400
C484        C  0.40258632  0.18029744  0.57271282     0.10700
H485        H  0.38378999  0.21569395  0.69483473     0.15200
H486        H  0.34790942  0.13388503  0.58089302     0.01000
H487        H  0.46335777  0.12000395  0.66194856     0.15500
H488        H  0.45766009  0.22102717  0.58131756     0.15300
C489        C  0.59291988  0.18513735  0.65320757     0.87100
C490        C  0.59305196  0.13495157  0.65121130    -0.53100
C491        C  0.62787598  0.11729144  0.62941815     0.10100
C492        C  0.65914763  0.15139996  0.61060301     0.21000
C493        C  0.63592127  0.19749052  0.67319980    -0.53800
C494        C  0.67076962  0.17852488  0.65283125     0.10200
C495        C  0.59597627  0.19802622  0.60363064    -0.53400
C496        C  0.63036188  0.18119673  0.58095869     0.10700
H497        H  0.56761053  0.11487920  0.66493920     0.15200
H498        H  0.68750940  0.13744849  0.59279206     0.01000
H499        H  0.63779213  0.21479711  0.70500515     0.15500
H500        H  0.57207727  0.21824382  0.58704024     0.15300
C501        C  0.60454331  0.86227534  0.64357080     0.87100
C502        C  0.64850958  0.85070876  0.66200394    -0.53100
C503        C  0.68192360  0.87167993  0.64168010     0.10100
C504        C  0.66815750  0.89858422  0.59986730     0.21000
C505        C  0.60240103  0.91230475  0.64148114    -0.53800
C506        C  0.63579508  0.93120810  0.61933836     0.10200
C507        C  0.60666072  0.84958760  0.59402507    -0.53400
C508        C  0.63947425  0.86847540  0.57077357     0.10700
H509        H  0.65178434  0.83334822  0.69367660     0.16800
H510        H  0.69545906  0.91354331  0.58143321     0.01000
H511        H  0.57656552  0.93174540  0.65589143     0.15500
H512        H  0.58320940  0.82882562  0.57771320     0.15300
O513        O  0.83969987  0.68629064  0.66548463    -0.57200
C514        C  0.89800796  0.69285838  0.78599591     0.75500
O515        O  0.97581056  0.76175656  0.68387456    -0.58300
C516        C  0.85137743  0.68874366  0.62479057     0.75400
C517        C  0.86620780  0.81578922  0.71751222     0.77800
Cd518      Cd  0.90179867  0.72982606  0.69722706     1.37500
O519        O  0.93201649  0.69934946  0.76366209    -0.57200
O520        O  0.87480217  0.80494414  0.67738018    -0.56000
C521        C  0.99596304  0.72572940  0.68419983     0.77800
O522        O  0.87753125  0.78924648  0.74748927    -0.58400
O523        O  0.86281360  0.69671923  0.76486757    -0.56800
O524        O  0.88676827  0.70782970  0.61779278    -0.56800
O525        O  0.97272703  0.69205135  0.68653609    -0.56000
O526        O  0.20024588  0.67256529  0.66501248    -0.57200
C527        C  0.14270107  0.66997531  0.78393540     0.75500
O528        O  0.16116424  0.77318490  0.75153979    -0.58300
C529        C  0.18913929  0.67684509  0.62441770     0.75400
C530        C  0.04388201  0.72278151  0.68507097     0.77800
Cd531      Cd  0.13808994  0.71528532  0.69860182     1.37500
O532        O  0.11117736  0.66664327  0.75724257    -0.57200
O533        O  0.06332240  0.68651271  0.68672325    -0.56000
C534        C  0.17402245  0.79969959  0.72214846     0.77800
O535        O  0.06774006  0.75604706  0.68693463    -0.58400
O536        O  0.17593916  0.68845021  0.76864768    -0.56800
O537        O  0.15394855  0.69674368  0.61797242    -0.56800
O538        O  0.16712348  0.78926998  0.68162045    -0.56000
O539        O  0.20272560  0.66312583  0.54645597    -0.57200
C540        C  0.21267763  0.65673657  0.93545061     0.75500
O541        O  0.32348798  0.69060160  0.52531424    -0.58300
C542        C  0.21597671  0.66090556  0.58648109     0.75400
C543        C  0.27768065  0.54019689  0.51426369     0.77800
Cd544      Cd  0.26867287  0.63467262  0.50852528     1.37500
O545        O  0.21973216  0.68183983  0.96831251    -0.57200
O546        O  0.24513263  0.55996282  0.49920526    -0.56000
C547        C  0.33798751  0.69355348  0.48563142     0.77800
O548        O  0.30862851  0.56389582  0.52716196    -0.58400
O549        O  0.23434167  0.62176457  0.93399971    -0.56800
O550        O  0.25366359  0.64555778  0.59162291    -0.56800
O551        O  0.32546838  0.66502310  0.45811075    -0.56000
O552        O  0.20907592  0.36301179  0.55241706    -0.57200
C553        C  0.21548158  0.37118432  0.94252781     0.75500
O554        O  0.30946601  0.46942009  0.52931129    -0.58300
C555        C  0.22018035  0.36842341  0.59276885     0.75400
C556        C  0.34300523  0.34367627  0.48522560     0.77800
Cd557      Cd  0.27161282  0.39758565  0.51438561     1.37500
O558        O  0.22702731  0.34679033  0.97459594    -0.57200
O559        O  0.32447619  0.36985209  0.45890803    -0.56000
C560        C  0.27781640  0.49220521  0.51589265     0.77800
O561        O  0.33359562  0.34717234  0.52660921    -0.58400
O562        O  0.23212461  0.40865757  0.94074518    -0.56800
O563        O  0.25552515  0.38822558  0.59853244    -0.56800
O564        O  0.24494811  0.47153412  0.50321761    -0.56000
O565        O  0.83989018  0.67001576  0.54762865    -0.57200
C566        C  0.82674979  0.67521906  0.93970932     0.75500
O567        O  0.73783143  0.57462354  0.53076336    -0.58300
C568        C  0.82494157  0.67197515  0.58709158     0.75400
C569        C  0.70260210  0.70208727  0.48097430     0.77800
Cd570      Cd  0.77315797  0.64616857  0.50840369     1.37500
O571        O  0.81952750  0.69783525  0.97451434    -0.57200
O572        O  0.71424009  0.69940593  0.52168411    -0.56000
C573        C  0.76572662  0.55143006  0.51061447     0.77800
O574        O  0.71844837  0.67427689  0.45441215    -0.58400
O575        O  0.80722831  0.63929272  0.93683598    -0.56800
O576        O  0.78598127  0.66043166  0.59162214    -0.56800
O577        O  0.79498172  0.57175032  0.49003595    -0.56000
O578        O  0.84417013  0.38857810  0.55011127    -0.57200
C579        C  0.83170960  0.38476040  0.93892458     0.75500
O580        O  0.73038374  0.34580994  0.52393908    -0.58300
C581        C  0.82896853  0.38764614  0.58953867     0.75400
C582        C  0.76603842  0.50337607  0.51080977     0.77800
Cd583      Cd  0.77672213  0.40890881  0.50981185     1.37500
O584        O  0.82704232  0.36243937  0.97427868    -0.57200
O585        O  0.79418450  0.48312264  0.48836072    -0.56000
C586        C  0.70965317  0.34718812  0.48747877     0.77800
O587        O  0.74003430  0.48012070  0.53324097    -0.58400
O588        O  0.80794588  0.41808775  0.93511765    -0.56800
O589        O  0.78972952  0.39890404  0.59346550    -0.56800
O590        O  0.71463701  0.38090886  0.46380729    -0.56000
O591        O  0.84191617  0.37237979  0.66807469    -0.57200
C592        C  0.90512834  0.37285968  0.78860724     0.75500
O593        O  0.87701441  0.27240910  0.75143182    -0.58300
C594        C  0.85528950  0.37181865  0.62790581     0.75400
C595        C  0.99858322  0.32300362  0.68792575     0.77800
Cd596      Cd  0.90484380  0.33035074  0.70141891     1.37500
O597        O  0.93799406  0.36815133  0.76392040    -0.57200
O598        O  0.97928891  0.35936652  0.68973047    -0.56000
C599        C  0.86689150  0.24568184  0.72114559     0.77800
O600        O  0.97462592  0.28970868  0.68868877    -0.58400
O601        O  0.86927945  0.36379995  0.77079871    -0.56800
O602        O  0.89210756  0.35493805  0.62200458    -0.56800
O603        O  0.87715894  0.25604051  0.68136823    -0.56000
O604        O  0.16064636  0.36417592  0.76569162    -0.57200
C605        C  0.19327131  0.35128797  0.63010333     0.75500
O606        O  0.18753595  0.26576544  0.74537905    -0.58300
C607        C  0.14112057  0.34070298  0.79425682     0.75400
C608        C  0.04642076  0.31977947  0.68825647     0.77800
Cd609      Cd  0.14029452  0.31276337  0.70222250     1.37500
O610        O  0.19780621  0.36285751  0.67066803    -0.57200
O611        O  0.06998138  0.35286945  0.69375932    -0.56000
C612        C  0.18226021  0.23092574  0.72396747     0.77800
O613        O  0.06610523  0.28367656  0.68579736    -0.58400
O614        O  0.16414781  0.32350521  0.62288793    -0.56800
O615        O  0.12205951  0.30760572  0.77916570    -0.56800
O616        O  0.15731470  0.23275379  0.69026161    -0.56000
O617        O  0.70465197  0.87327502  0.78392437    -0.57200
C618        C  0.71634219  0.88467100  0.67282590     0.75500
O619        O  0.80737355  0.98187181  0.76048990    -0.58300
C620        C  0.71399171  0.87996228  0.82456843     0.75400
C621        C  0.83959021  0.85404344  0.72886012     0.77800
Cd622      Cd  0.76730609  0.91063480  0.74820623     1.37500
O623        O  0.72718584  0.85955969  0.70448866    -0.57200
O624        O  0.82325238  0.87786133  0.69875586    -0.56000
C625        C  0.77509603  0.00571433  0.75132021     0.77800
O626        O  0.82778277  0.86165383  0.76892755    -0.58400
O627        O  0.73185131  0.92268257  0.67353055    -0.56800
O628        O  0.74764433  0.90226249  0.83124206    -0.56800
O629        O  0.74077683  0.98595742  0.74142218    -0.56000
O630        O  0.71339494  0.19169402  0.71734546    -0.57200
C631        C  0.71965480  0.17721921  0.83055766     0.75500
O632        O  0.80824042  0.07633413  0.76353125    -0.58300
C633        C  0.70864356  0.17029775  0.68148494     0.75400
C634        C  0.84023708  0.20744740  0.73153403     0.77800
Cd635      Cd  0.76935560  0.14914358  0.75077176     1.37500
O636        O  0.71694321  0.19503317  0.79249157    -0.57200
O637        O  0.82349111  0.18465691  0.70093554    -0.56000
C638        C  0.77597837  0.05388525  0.75170683     0.77800
O639        O  0.82917659  0.19852482  0.77144266    -0.58400
O640        O  0.74606631  0.14571596  0.83329241    -0.56800
O641        O  0.73498165  0.13938678  0.67473658    -0.56800
O642        O  0.74306828  0.07513812  0.73995227    -0.56000
O643        O  0.69076012  0.17382713  0.90627728    -0.57200
C644        C  0.63624145  0.19314361  0.53289826     0.75500
O645        O  0.68849429  0.27346515  0.99247522    -0.58300
C646        C  0.69340704  0.19341253  0.86892029     0.75400
C647        C  0.54914840  0.22935691  0.92374000     0.77800
Cd648      Cd  0.64198227  0.23016031  0.94354777     1.37500
O649        O  0.60954381  0.21886758  0.51479637    -0.57200
O650        O  0.57131970  0.19473544  0.92637136    -0.56000
C651        C  0.68421373  0.30974667  0.97332317     0.77800
O652        O  0.57010136  0.26455390  0.92593334    -0.58400
O653        O  0.66712886  0.18023686  0.50812681    -0.56800
O654        O  0.67202622  0.22839462  0.86586886    -0.56800
O655        O  0.65988481  0.31053679  0.93915807    -0.56000
O656        O  0.35247789  0.17417531  0.90593748    -0.57200
C657        C  0.40239533  0.18653345  0.52369077     0.75500
O658        O  0.47865801  0.26299973  0.92277288    -0.58300
C659        C  0.35804949  0.18394536  0.86504333     0.75400
C660        C  0.36891945  0.30799526  0.96721675     0.77800
Cd661      Cd  0.40759356  0.22619499  0.93736421     1.37500
O662        O  0.43750172  0.19411215  0.50352089    -0.57200
O663        O  0.37391046  0.30013295  0.92567738    -0.56000
C664        C  0.50128066  0.22854402  0.92250344     0.77800
O665        O  0.38466567  0.28051845  0.99387042    -0.58400
O666        O  0.36820216  0.18963018  0.50077399    -0.56800
O667        O  0.38701396  0.21177842  0.85726817    -0.56800
O668        O  0.48059640  0.19321476  0.92478126    -0.56000
O669        O  0.69079377  0.87371228  0.90188888    -0.57200
C670        C  0.64172823  0.86117851  0.52190553     0.75500
O671        O  0.56610384  0.78071699  0.92738358    -0.58300
C672        C  0.68748705  0.86141724  0.86150520     0.75400
C673        C  0.67638305  0.73926112  0.96629937     0.77800
Cd674      Cd  0.63729099  0.82031636  0.93477928     1.37500
O675        O  0.67648891  0.85260884  0.50135516    -0.57200
O676        O  0.66392516  0.76905591  0.99230647    -0.56000
C677        C  0.54272637  0.81434761  0.92291534     0.77800
O678        O  0.66844540  0.74480844  0.92486388    -0.58400
O679        O  0.60719232  0.85780141  0.49964782    -0.56800
O680        O  0.66047366  0.83148967  0.85448205    -0.56800
O681        O  0.56285169  0.84995880  0.91992053    -0.56000
O682        O  0.34235957  0.86187528  0.90843745    -0.57200
C683        C  0.39825395  0.85762926  0.52846481     0.75500
O684        O  0.37567823  0.75933025  0.99674012    -0.58300
C685        C  0.34761772  0.85005163  0.86810313     0.75400
C686        C  0.49471020  0.81283331  0.92450913     0.77800
Cd687      Cd  0.40038826  0.81337681  0.94073640     1.37500
O688        O  0.43163921  0.85327696  0.50436781    -0.57200
O689        O  0.47194403  0.84701484  0.92183942    -0.56000
C690        C  0.36440801  0.73029399  0.96935957     0.77800
O691        O  0.47408352  0.77799137  0.93152009    -0.58400
O692        O  0.36269187  0.84805831  0.51030983    -0.56800
O693        O  0.37758639  0.82284792  0.86116406    -0.56800
O694        O  0.37316926  0.73733259  0.92838316    -0.56000
O695        O  0.33089671  0.85888994  0.79054852    -0.57200
C696        C  0.32697119  0.87550608  0.68049019     0.75500
O697        O  0.21183848  0.84487282  0.77440958    -0.58300
C698        C  0.32061643  0.86649143  0.83086365     0.75400
C699        C  0.26672371  0.99190380  0.75982245     0.77800
Cd700      Cd  0.27026130  0.89653572  0.75380042     1.37500
O701        O  0.32425491  0.85390314  0.71648815    -0.57200
O702        O  0.30107497  0.96985156  0.75788891    -0.56000
C703        C  0.20011766  0.83779257  0.73429760     0.77800
O704        O  0.23204056  0.97027114  0.76068871    -0.58400
O705        O  0.29968141  0.90573186  0.67548069    -0.56800
O706        O  0.28614168  0.88817586  0.83687515    -0.56800
O707        O  0.21578082  0.86240468  0.70455840    -0.56000
O708        O  0.34292427  0.16864489  0.78764468    -0.57200
C709        C  0.32394474  0.16113516  0.67369090     0.75500
O710        O  0.23566583  0.06454816  0.76292554    -0.58300
C711        C  0.33172718  0.16511163  0.82833528     0.75400
C712        C  0.20736958  0.19227662  0.73667902     0.77800
Cd713      Cd  0.27811592  0.13459361  0.75300344     1.37500
O714        O  0.30760245  0.18753190  0.70139276    -0.57200
O715        O  0.21449692  0.16123573  0.70971382    -0.56000
C716        C  0.26852226  0.04004461  0.75913042     0.77800
O717        O  0.22673377  0.19094186  0.77409971    -0.58400
O718        O  0.31624753  0.12133967  0.68030491    -0.56800
O719        O  0.29631008  0.14582293  0.83532331    -0.56800
O720        O  0.30416652  0.05903025  0.75349127    -0.56000
C721        C  0.64088521  0.04964503  0.58442148    -0.11600
C722        C  0.63539109  0.06975842  0.62661105     0.05400
C723        C  0.63445187  0.04370509  0.66567116    -0.06900
C724        C  0.63858050  0.99890260  0.66207906    -0.07700
C725        C  0.64106799  0.97866796  0.62018237    -0.02200
C726        C  0.64274328  0.00404861  0.58090491     0.04600
N727        N  0.64210762  0.98392251  0.53758785     0.67100
H728        H  0.64086288  0.06923132  0.55402967     0.16000
H729        H  0.63721272  0.97937647  0.69247762     0.15700
N730        N  0.62615026  0.06152730  0.70915590     0.74800
O731        O  0.60763443  0.96745014  0.52314511    -0.38600
O732        O  0.67703676  0.97668029  0.51706398    -0.38600
O733        O  0.59176916  0.05104289  0.72896479    -0.39300
O734        O  0.65727781  0.07499789  0.73231854    -0.39300
C735        C  0.48621059  0.18673900  0.70985843    -0.11600
C736        C  0.46734970  0.21112315  0.67546280     0.05400
C737        C  0.49094510  0.24661889  0.65867605    -0.06900
C738        C  0.53590134  0.24366963  0.66024930    -0.07700
C739        C  0.55519111  0.20600852  0.67838843    -0.02200
C740        C  0.53092584  0.18279184  0.71072508     0.04600
N741        N  0.55028819  0.15293309  0.74154002     0.67100
H742        H  0.46680908  0.16442123  0.72942051     0.16000
H743        H  0.55519130  0.26718857  0.64206259     0.15700
N744        N  0.46988623  0.28222171  0.63617579     0.74800
O745        O  0.57320608  0.16776017  0.77292502    -0.38600
O746        O  0.53432084  0.11551073  0.74577551    -0.38600
O747        O  0.43155844  0.29235237  0.64616590    -0.39300
O748        O  0.48927719  0.30354762  0.60610309    -0.39300
C749        C  0.50165024  0.86743647  0.70383612    -0.11600
C750        C  0.47997921  0.84208786  0.67197160     0.05400
C751        C  0.50213790  0.80540149  0.65469248    -0.06900
C752        C  0.54696100  0.80614516  0.65380875    -0.07700
C753        C  0.56833712  0.84244770  0.67103411    -0.02200
C754        C  0.54666998  0.86739502  0.70430420     0.04600
N755        N  0.56939860  0.89692228  0.73325048     0.67100
H756        H  0.48401720  0.89132787  0.72357304     0.16000
H757        H  0.56435910  0.78154679  0.63492588     0.15700
N758        N  0.47993131  0.76846315  0.63718428     0.74800
O759        O  0.55172234  0.93176021  0.74641194    -0.38600
O760        O  0.60694049  0.88784789  0.74663376    -0.38600
O761        O  0.48670444  0.75664526  0.59712169    -0.39300
O762        O  0.46500331  0.74114451  0.66466410    -0.39300
C763        C  0.44219288  0.00104363  0.60494762    -0.11600
C764        C  0.40392204  0.97863737  0.61594309     0.05400
C765        C  0.36549881  0.00318745  0.62077240    -0.06900
C766        C  0.36683918  0.04857426  0.61975871    -0.07700
C767        C  0.40561849  0.07048332  0.61363602    -0.02200
C768        C  0.44294534  0.04660355  0.60275836     0.04600
N769        N  0.48068741  0.06822032  0.58658296     0.67100
H770        H  0.47147389  0.98317281  0.59772690     0.16000
H771        H  0.33776553  0.06629063  0.62503581     0.15700
N772        N  0.32486178  0.98368420  0.62969195     0.74800
O773        O  0.51532081  0.06664016  0.60866031    -0.38600
O774        O  0.47875843  0.09075873  0.55115366    -0.38600
O775        O  0.30715577  0.99189849  0.66692121    -0.39300
O776        O  0.30107613  0.97444199  0.59673129    -0.39300
C777        C  0.99476481  0.69372033  0.96564473    -0.11600
C778        C  0.97564418  0.71778209  0.93104180     0.05400
C779        C  0.00208264  0.74791547  0.90858857    -0.06900
C780        C  0.04594492  0.73776484  0.90466439    -0.07700
C781        C  0.06221825  0.69990393  0.92544096    -0.02200
C782        C  0.03843741  0.68312791  0.96215846     0.04600
N783        N  0.05694810  0.65391602  0.99415707     0.67100
H784        H  0.97472773  0.67587090  0.98906917     0.16000
H785        H  0.06615528  0.75680775  0.88240165     0.15700
N786        N  0.98390113  0.78513287  0.88615647     0.74800
O787        O  0.08414498  0.66835361  0.02178653    -0.38600
O788        O  0.03773150  0.61890867  0.00308657    -0.38600
O789        O  0.94820080  0.80069137  0.89899073    -0.39300
O790        O  0.00297331  0.80225020  0.85310529    -0.39300
C791        C  0.13146040  0.48615049  0.92758028    -0.11600
C792        C  0.13662848  0.46357144  0.88704762     0.05400
C793        C  0.14431975  0.48724725  0.84721936    -0.06900
C794        C  0.14467801  0.53300313  0.84843719    -0.07700
C795        C  0.13686523  0.55551214  0.88882528    -0.02200
C796        C  0.13118403  0.53146005  0.92881492     0.04600
N797        N  0.12430799  0.55217215  0.97121637     0.67100
H798        H  0.12688418  0.46856463  0.95843113     0.16000
H799        H  0.14888578  0.55080276  0.81764295     0.15700
N800        N  0.14862582  0.46573435  0.80486260     0.74800
O801        O  0.08861076  0.54692579  0.99075323    -0.38600
O802        O  0.15654450  0.56289507  0.99435243    -0.38600
O803        O  0.11589697  0.46166522  0.78013973    -0.39300
O804        O  0.18564111  0.46073347  0.78793894    -0.39300
C805        C  0.90315493  0.55762947  0.93024833    -0.11600
C806        C  0.90063899  0.57878649  0.88864055     0.05400
C807        C  0.89828213  0.55401223  0.84899754    -0.06900
C808        C  0.89908756  0.50841440  0.85154994    -0.07700
C809        C  0.90411764  0.48717704  0.89312742    -0.02200
C810        C  0.90573032  0.51235551  0.93288229     0.04600
N811        N  0.91134337  0.49286877  0.97615191     0.67100
H812        H  0.90503642  0.57654764  0.96089290     0.16000
H813        H  0.89861340  0.48959197  0.82071260     0.15700
N814        N  0.89988168  0.57468038  0.80599701     0.74800
O815        O  0.94890395  0.48976910  0.99202745    -0.38600
O816        O  0.87981830  0.49199069  0.00294131    -0.38600
O817        O  0.93501709  0.59002730  0.79180553    -0.39300
O818        O  0.86548739  0.58232438  0.78482245    -0.39300
C819        C  0.00428226  0.36472734  0.96848851    -0.11600
C820        C  0.98174578  0.34534139  0.93261645     0.05400
C821        C  0.99758281  0.30478497  0.91651730    -0.06900
C822        C  0.04089920  0.29459171  0.92343683    -0.07700
C823        C  0.06703707  0.32566366  0.94391551    -0.02200
C824        C  0.04676624  0.35164000  0.97661368     0.04600
N825        N  0.06999895  0.36700645  0.01485710     0.67100
H826        H  0.99008191  0.39067158  0.98831680     0.16000
H827        H  0.05506689  0.26706793  0.90607032     0.15700
N828        N  0.97160813  0.27558438  0.89094300     0.74800
O829        O  0.09181831  0.40140204  0.01254746    -0.38600
O830        O  0.07440699  0.34232718  0.04844144    -0.38600
O831        O  0.98248322  0.26639700  0.85111091    -0.39300
O832        O  0.94687280  0.25008202  0.91171791    -0.39300
loop_ 
_geom_bond_atom_site_label_1 
_geom_bond_atom_site_label_2 
_geom_bond_distance 
_geom_bond_site_symmetry_2 
_ccdc_geom_bond_type 
C1            C2   1.548       .  S
C1            C7   1.523       .  S
C1            C5   1.517       .  S
C1          C404   1.519       .  S
C2            H9   1.083       .  S
C2            C3   1.372       .  D
C3            C4   1.543       .  S
C3          C393   1.489       .  S
C4            C8   1.551       .  S
C4            C6   1.549       .  S
C4           H10   1.111       .  S
C5           H11   1.087       .  S
C5            C6   1.365       .  D
C6          C163   1.474       .  S
C7           H12   1.084       .  S
C7            C8   1.358       .  D
C8          C176   1.480       .  S
C13          C14   1.508       .  S
C13          C19   1.525       .  S
C13          C17   1.552       .  S
C13         C407   1.527       .  S
C14          H21   1.088       .  S
C14          C15   1.364       .  D
C15          C16   1.557       .  S
C15         C137   1.469       .  S
C16          C20   1.552       .  S
C16          C18   1.530       .  S
C16          H22   1.109       .  S
C17          H23   1.086       .  S
C17          C18   1.366       .  D
C18         C376   1.485       .  S
C19          H24   1.084       .  S
C19          C20   1.361       .  D
C20         C191   1.478       .  S
C25          C26   1.514       .  S
C25          C31   1.523       .  S
C25          C29   1.551       .  S
C25         C362   1.527       .  S
C26          H33   1.088       .  S
C26          C27   1.367       .  D
C27          C28   1.554       .  S
C27         C150   1.471       .  S
C28          C32   1.553       .  S
C28          C30   1.536       .  S
C28          H34   1.110       .  S
C29          H35   1.086       .  S
C29          C30   1.361       .  D
C30         C390   1.481       .  S
C31          H36   1.083       .  S
C31          C32   1.361       .  D
C32          C98   1.483       .  S
C37          C38   1.546       .  S
C37          C43   1.528       .  S
C37          C41   1.516       .  S
C37         C365   1.525       .  S
C38          H45   1.082       .  S
C38          C39   1.370       .  D
C39          C40   1.542       .  S
C39         C379   1.488       .  S
C40          C44   1.554       .  S
C40          C42   1.550       .  S
C40          H46   1.111       .  S
C41          H47   1.087       .  S
C41          C42   1.365       .  D
C42         C124   1.473       .  S
C43          H48   1.086       .  S
C43          C44   1.359       .  D
C44         C111   1.482       .  S
C49          C50   1.552       .  S
C49          C55   1.517       .  S
C49          C53   1.507       .  S
C49         C334   1.520       .  S
C50          H57   1.086       .  S
C50          C51   1.372       .  D
C51          C52   1.547       .  S
C51         C348   1.502       .  S
C52          C56   1.553       .  S
C52          C54   1.560       .  S
C52          H58   1.104       .  S
C53          H59   1.087       .  S
C53          C54   1.363       .  D
C54         C280   1.479       .  S
C55          H60   1.083       .  S
C55          C56   1.356       .  D
C56         C267   1.473       .  S
C61          C62   1.507       .  S
C61          C67   1.522       .  S
C61          C65   1.557       .  S
C61         C320   1.517       .  S
C62          H69   1.089       .  S
C62          C63   1.361       .  D
C63          C64   1.556       .  S
C63         C293   1.471       .  S
C64          C68   1.549       .  S
C64          C66   1.529       .  S
C64          H70   1.111       .  S
C65          H71   1.084       .  S
C65          C66   1.367       .  D
C66         C351   1.481       .  S
C67          H72   1.085       .  S
C67          C68   1.359       .  D
C68         C241   1.471       .  S
C73          C74   1.546       .  S
C73          C79   1.531       .  S
C73          C77   1.513       .  S
C73         C323   1.527       .  S
C74          H81   1.084       .  S
C74          C75   1.368       .  D
C75          C76   1.537       .  S
C75         C306   1.482       .  S
C76          C80   1.552       .  S
C76          C78   1.551       .  S
C76          H82   1.111       .  S
C77          H83   1.087       .  S
C77          C78   1.367       .  D
C78         C217   1.474       .  S
C79          H84   1.085       .  S
C79          C80   1.361       .  D
C80         C228   1.486       .  S
C85          C86   1.511       .  S
C85          C91   1.525       .  S
C85          C89   1.542       .  S
C85         C337   1.516       .  S
C86          H93   1.088       .  S
C86          C87   1.364       .  D
C87          C88   1.554       .  S
C87         C202   1.471       .  S
C88          C92   1.552       .  S
C88          C90   1.530       .  S
C88          H94   1.110       .  S
C89          H95   1.085       .  S
C89          C90   1.361       .  D
C90         C309   1.470       .  S
C91          H96   1.086       .  S
C91          C92   1.360       .  D
C92         C254   1.469       .  S
O97         C100   1.266       .  A
O97        Cd102   2.537       .  S
C98         O107   1.269       .  A
C98         O103   1.262       .  A
O99         C105   1.269       .  A
O99        Cd102   2.527       .  S
C100        O108   1.266       .  A
C100        C152   1.486       .  S
C101        O106   1.257       .  A
C101        O104   1.268       .  A
C101        C205   1.472       .  S
Cd102       O109   2.500       .  S
Cd102       O108   2.499       .  S
Cd102       O107   2.572       .  S
Cd102       O103   2.353       .  S
Cd102       O106   2.456       .  S
Cd102       O104   2.538       .  S
C105        O109   1.267       .  A
C105        C114   1.488   1_655  S
O110        C113   1.264       .  A
O110       Cd115   2.535       .  S
C111        O120   1.265       .  A
C111        O116   1.265       .  A
O112        C118   1.261       .  A
O112       Cd115   2.486       .  S
C113        O121   1.264       .  A
C113        C126   1.484       .  S
C114        O119   1.268       .  A
C114        O117   1.267       .  A
Cd115       O122   2.508       .  S
Cd115       O121   2.511       .  S
Cd115       O120   2.550       .  S
Cd115       O116   2.435       .  S
Cd115       O119   2.529       .  S
Cd115       O117   2.506       .  S
C118        O122   1.266       .  A
C118        C287   1.473       .  S
O123        C126   1.262       .  A
O123       Cd128   2.492       .  S
C124        O133   1.266       .  A
C124        O129   1.265       .  A
O125        C131   1.266   1_554  A
O125       Cd128   2.487       .  S
C126        O134   1.268       .  A
C127        O132   1.269       .  A
C127        O130   1.259   1_554  A
C127        C144   1.476       .  S
Cd128       O135   2.495   1_554  S
Cd128       O134   2.539       .  S
Cd128       O132   2.557       .  S
Cd128       O130   2.429   1_554  S
Cd128       O549   2.490   1_554  S
Cd128       O545   2.406   1_554  S
O129       Cd544   2.402       .  S
C131        O135   1.263       .  A
C131        C690   1.474       .  S
O133       Cd544   2.498       .  S
O136        C139   1.261       .  A
O136       Cd141   2.486       .  S
C137        O146   1.267       .  A
C137        O142   1.265       .  A
O138        C144   1.268       .  A
O138       Cd141   2.544       .  S
C139        O147   1.269       .  A
C139        C189   1.485       .  S
C140        O145   1.268   1_556  A
C140        O143   1.261       .  A
C140        C660   1.471       .  S
Cd141       O148   2.437       .  S
Cd141       O147   2.564       .  S
Cd141       O145   2.486       .  S
Cd141       O143   2.475   1_554  S
Cd141       O562   2.491   1_554  S
Cd141       O558   2.385   1_554  S
O142       Cd557   2.387       .  S
C144        O148   1.263       .  A
O146       Cd557   2.494       .  S
O149        C152   1.263       .  A
O149       Cd154   2.492       .  S
C150        O159   1.267       .  A
C150        O155   1.266       .  A
O151        C157   1.269       .  A
O151       Cd154   2.560       .  S
C152        O160   1.269       .  A
C153        O158   1.261       .  A
C153        O156   1.267   1_556  A
C153        C673   1.474       .  S
Cd154       O161   2.446   1_554  S
Cd154       O160   2.548       .  S
Cd154       O158   2.489   1_554  S
Cd154       O156   2.486       .  S
Cd154       O575   2.478   1_554  S
Cd154       O571   2.409   1_554  S
O155       Cd570   2.401       .  S
C157        O161   1.262   1_554  A
C157        C166   1.480       .  S
O159       Cd570   2.478       .  S
O162        C165   1.264       .  A
O162       Cd167   2.492       .  S
C163        O172   1.265       .  A
C163        O168   1.265       .  A
O164        C170   1.263   1_554  A
O164       Cd167   2.457       .  S
C165        O173   1.269       .  A
C165        C178   1.485       .  S
C166        O171   1.270       .  A
C166        O169   1.260   1_554  A
Cd167       O174   2.520   1_554  S
Cd167       O173   2.535       .  S
Cd167       O171   2.564       .  S
Cd167       O169   2.435   1_554  S
Cd167       O588   2.495   1_554  S
Cd167       O584   2.403   1_554  S
O168       Cd583   2.406       .  S
C170        O174   1.264       .  A
C170        C651   1.474       .  S
O172       Cd583   2.492       .  S
O175        C178   1.264       .  A
O175       Cd180   2.534       .  S
C176        O185   1.266       .  A
C176        O181   1.262       .  A
O177        C183   1.261       .  A
O177       Cd180   2.479       .  S
C178        O186   1.265       .  A
C179        O184   1.269       .  A
C179        O182   1.267       .  A
C179        C192   1.486   1_655  S
Cd180       O187   2.520       .  S
Cd180       O186   2.512       .  S
Cd180       O185   2.554       .  S
Cd180       O181   2.422       .  S
Cd180       O184   2.519       .  S
Cd180       O182   2.501       .  S
C183        O187   1.266       .  A
C183        C218   1.474       .  S
O188        C191   1.270       .  A
O188       Cd193   2.552       .  S
C189        O198   1.265       .  A
C189        O194   1.266       .  A
O190        C196   1.258       .  A
O190       Cd193   2.422       .  S
C191        O199   1.263       .  A
C192        O197   1.267       .  A
C192        O195   1.268       .  A
Cd193       O200   2.541       .  S
Cd193       O199   2.359       .  S
Cd193       O198   2.492       .  S
Cd193       O194   2.542       .  S
Cd193       O197   2.519       .  S
Cd193       O195   2.512       .  S
C196        O200   1.269       .  A
C196        C296   1.468       .  S
O201        C204   1.262       .  A
O201       Cd206   2.508       .  S
C202        O211   1.267       .  A
C202        O207   1.263       .  A
O203        C209   1.269   1_565  A
O203       Cd206   2.547       .  S
C204        O212   1.268       .  A
C204        C256   1.489       .  S
C205        O210   1.267       .  A
C205        O208   1.262       .  A
Cd206       O213   2.463       .  S
Cd206       O212   2.557       .  S
Cd206       O211   2.505       .  S
Cd206       O207   2.397       .  S
Cd206       O210   2.467       .  S
Cd206       O208   2.490       .  S
C209        O213   1.265   1_545  A
C209        C222   1.482       .  S
O214        C217   1.263       .  A
O214       Cd219   2.391       .  S
C215        O224   1.269       .  A
C215        O220   1.261       .  A
C215        C230   1.484       .  S
O216        C222   1.269       .  A
O216       Cd219   2.565       .  S
C217        O225   1.267       .  A
C218        O223   1.265       .  A
C218        O221   1.263       .  A
Cd219       O226   2.446       .  S
Cd219       O225   2.517       .  S
Cd219       O224   2.558       .  S
Cd219       O220   2.475       .  S
Cd219       O223   2.482       .  S
Cd219       O221   2.498       .  S
C222        O226   1.260       .  A
O227        C230   1.267       .  A
O227       Cd232   2.547       .  S
C228        O237   1.269       .  A
C228        O233   1.264       .  A
O229        C235   1.260       .  A
O229       Cd232   2.452       .  S
C230        O238   1.264       .  A
C231        O236   1.268       .  A
C231        O234   1.267       .  A
C231        C248   1.487       .  S
Cd232       O239   2.541       .  S
Cd232       O238   2.486       .  S
Cd232       O236   2.520       .  S
Cd232       O234   2.511       .  S
Cd232       O653   2.568       .  S
Cd232       O649   2.379       .  S
O233       Cd648   2.384   1_554  S
C235        O239   1.267       .  A
C235        C586   1.473       .  S
O237       Cd648   2.564   1_554  S
O240        C243   1.265       .  A
O240       Cd245   2.531       .  S
C241        O250   1.265       .  A
C241        O246   1.265       .  A
O242        C248   1.268       .  A
O242       Cd245   2.522       .  S
C243        O251   1.266       .  A
C243        C295   1.485       .  S
C244        O249   1.257       .  A
C244        O247   1.268       .  A
C244        C556   1.473       .  S
Cd245       O252   2.507       .  S
Cd245       O251   2.510       .  S
Cd245       O249   2.477       .  S
Cd245       O247   2.524       .  S
Cd245       O666   2.518       .  S
Cd245       O662   2.386       .  S
O246       Cd661   2.389   1_554  S
C248        O252   1.267       .  A
O250       Cd661   2.520   1_554  S
O253        C256   1.265       .  A
O253       Cd258   2.542       .  S
C254        O263   1.266   1_554  A
C254        O259   1.264       .  A
O255        C261   1.268       .  A
O255       Cd258   2.531       .  S
C256        O264   1.266       .  A
C257        O262   1.268       .  A
C257        O260   1.258       .  A
C257        C569   1.473       .  S
Cd258       O265   2.517       .  S
Cd258       O264   2.519       .  S
Cd258       O262   2.531       .  S
Cd258       O260   2.463       .  S
Cd258       O679   2.402       .  S
Cd258       O675   2.521       .  S
O259       Cd674   2.512   1_554  S
C261        O265   1.267       .  A
C261        C270   1.490       .  S
O263       Cd674   2.401       .  S
O266        C269   1.265       .  A
O266       Cd271   2.536       .  S
C267        O276   1.264       .  A
C267        O272   1.265       .  A
O268        C274   1.259       .  A
O268       Cd271   2.472       .  S
C269        O277   1.264       .  A
C269        C282   1.481       .  S
C270        O275   1.268       .  A
C270        O273   1.267       .  A
Cd271       O278   2.524       .  S
Cd271       O277   2.491       .  S
Cd271       O275   2.532       .  S
Cd271       O273   2.516       .  S
Cd271       O692   2.539       .  S
Cd271       O688   2.401       .  S
O272       Cd687   2.403   1_554  S
C274        O278   1.267       .  A
C274        C547   1.473       .  S
O276       Cd687   2.530   1_554  S
O279        C282   1.262       .  A
O279       Cd284   2.472       .  S
C280        O289   1.263       .  A
C280        O285   1.264       .  A
O281        C287   1.267       .  A
O281       Cd284   2.494       .  S
C282        O290   1.270       .  A
C283        O288   1.269       .  A
C283        O286   1.262       .  A
C283        C300   1.483   1_565  S
Cd284       O291   2.479       .  S
Cd284       O290   2.540       .  S
Cd284       O289   2.523       .  S
Cd284       O285   2.392       .  S
Cd284       O288   2.559       .  S
Cd284       O286   2.459       .  S
C287        O291   1.262       .  A
O292        C295   1.263       .  A
O292       Cd297   2.498       .  S
C293        O302   1.264       .  A
C293        O298   1.261       .  A
O294        C300   1.270       .  A
O294       Cd297   2.548       .  S
C295        O303   1.269       .  A
C296        O301   1.267       .  A
C296        O299   1.265       .  A
Cd297       O304   2.459       .  S
Cd297       O303   2.541       .  S
Cd297       O302   2.495       .  S
Cd297       O298   2.412       .  S
Cd297       O301   2.432       .  S
Cd297       O299   2.494       .  S
C300        O304   1.264       .  A
C305        C306   1.408       .  A
C305        C310   1.407       .  A
C305        H312   1.086       .  S
C306        C307   1.412       .  A
C307        C308   1.388       .  A
C307        N314   1.427       .  S
C308        C309   1.394   1_545  A
C308        H313   1.086   1_545  S
C309        C310   1.406   1_565  A
C310        N311   1.429   1_545  S
N311        O315   1.262       .  A
N311        O316   1.261       .  A
N314        O318   1.260       .  A
N314        O317   1.261       .  A
C319        C320   1.397       .  A
C319        C324   1.392       .  A
C319        H326   1.084       .  S
C320        C321   1.410       .  A
C321        C322   1.399       .  A
C321        N328   1.439       .  S
C322        C323   1.409       .  A
C322        H327   1.085       .  S
C323        C324   1.416       .  A
C324        N325   1.429       .  S
N325        O329   1.261       .  A
N325        O330   1.262       .  A
N328        O332   1.263       .  A
N328        O331   1.263       .  A
C333        C334   1.402       .  A
C333        C338   1.396       .  A
C333        H340   1.086       .  S
C334        C335   1.416       .  A
C335        C336   1.390       .  A
C335        N342   1.431       .  S
C336        C337   1.399       .  A
C336        H341   1.084       .  S
C337        C338   1.417       .  A
C338        N339   1.440       .  S
N339        O343   1.263       .  A
N339        O344   1.262       .  A
N342        O346   1.261       .  A
N342        O345   1.263       .  A
C347        C348   1.415   1_545  A
C347        C352   1.404       .  A
C347        H354   1.080   1_545  S
C348        C349   1.416   1_565  A
C349        C350   1.399       .  A
C349        N356   1.424   1_545  S
C350        C351   1.394       .  A
C350        H355   1.060       .  S
C351        C352   1.406       .  A
C352        N353   1.432       .  S
N353        O357   1.261       .  A
N353        O358   1.263       .  A
N356        O360   1.262       .  A
N356        O359   1.260       .  A
C361        C362   1.397       .  A
C361        C366   1.396   1_655  A
C361        H368   1.084       .  S
C362        C363   1.407   1_655  A
C363        C364   1.400       .  A
C363        N370   1.438   1_455  S
C364        C365   1.411       .  A
C364        H369   1.085       .  S
C365        C366   1.419       .  A
C366        N367   1.429       .  S
N367        O371   1.261       .  A
N367        O372   1.262       .  A
N370        O374   1.263   1_655  A
N370        O373   1.263       .  A
C375        C376   1.399       .  A
C375        C380   1.394       .  A
C375        H382   1.075       .  S
C376        C377   1.411       .  A
C377        C378   1.408       .  A
C377        N384   1.429       .  S
C378        C379   1.406       .  A
C378        H383   1.075       .  S
C379        C380   1.413       .  A
C380        N381   1.428       .  S
N381        O385   1.261       .  A
N381        O386   1.261       .  A
N384        O388   1.262       .  A
N384        O387   1.262       .  A
C389        C390   1.401       .  A
C389        C394   1.397       .  A
C389        H396   1.083       .  S
C390        C391   1.406       .  A
C391        C392   1.407       .  A
C391        N398   1.429       .  S
C392        C393   1.408       .  A
C392        H397   1.085       .  S
C393        C394   1.414       .  A
C394        N395   1.430       .  S
N395        O399   1.262       .  A
N395        O400   1.261       .  A
N398        O402   1.261       .  A
N398        O401   1.262       .  A
C403        C404   1.411   1_455  A
C403        C408   1.398       .  A
C403        H410   1.083   1_455  S
C404        C405   1.422       .  A
C405        C406   1.395   1_655  A
C405        N412   1.430       .  S
C406        C407   1.397       .  A
C406        H411   1.083       .  S
C407        C408   1.404       .  A
C408        N409   1.429       .  S
N409        O413   1.261       .  A
N409        O414   1.262       .  A
N412        O416   1.261       .  A
N412        O415   1.263       .  A
C417        C418   1.548       .  S
C417        C423   1.522       .  S
C417        C421   1.516       .  S
C417        C820   1.518       .  S
C418        H425   1.083       .  S
C418        C419   1.371       .  D
C419        C420   1.542       .  S
C419        C809   1.487       .  S
C420        C424   1.552       .  S
C420        C422   1.549       .  S
C420        H426   1.111       .  S
C421        H427   1.087       .  S
C421        C422   1.365       .  D
C422        C579   1.475       .  S
C423        H428   1.084       .  S
C423        C424   1.358       .  D
C424        C592   1.481       .  S
C429        C430   1.508       .  S
C429        C435   1.526       .  S
C429        C433   1.552       .  S
C429        C823   1.526       .  S
C430        H437   1.088       .  S
C430        C431   1.364       .  D
C431        C432   1.556       .  S
C431        C553   1.468       .  S
C432        C436   1.552       .  S
C432        C434   1.531       .  S
C432        H438   1.109       .  S
C433        H439   1.086       .  S
C433        C434   1.366       .  D
C434        C792   1.485       .  S
C435        H440   1.084       .  S
C435        C436   1.361       .  D
C436        C607   1.477       .  S
C441        C442   1.515       .  S
C441        C447   1.523       .  S
C441        C445   1.550       .  S
C441        C778   1.524       .  S
C442        H449   1.087       .  S
C442        C443   1.367       .  D
C443        C444   1.554       .  S
C443        C566   1.473       .  S
C444        C448   1.551       .  S
C444        C446   1.535       .  S
C444        H450   1.110       .  S
C445        H451   1.086       .  S
C445        C446   1.361       .  D
C446        C806   1.478       .  S
C447        H452   1.083       .  S
C447        C448   1.358       .  D
C448        C514   1.478       .  S
C453        C454   1.548       .  S
C453        C459   1.528       .  S
C453        C457   1.516       .  S
C453        C781   1.525       .  S
C454        H461   1.083       .  S
C454        C455   1.371       .  D
C455        C456   1.542       .  S
C455        C795   1.488       .  S
C456        C460   1.552       .  S
C456        C458   1.550       .  S
C456        H462   1.111       .  S
C457        H463   1.087       .  S
C457        C458   1.366       .  D
C458        C540   1.473       .  S
C459        H464   1.086       .  S
C459        C460   1.356       .  D
C460        C527   1.478       .  S
C465        C466   1.551       .  S
C465        C471   1.520       .  S
C465        C469   1.508       .  S
C465        C750   1.523       .  S
C466        H473   1.085       .  S
C466        C467   1.371       .  D
C467        C468   1.546       .  S
C467        C764   1.499       .  S
C468        C472   1.552       .  S
C468        C470   1.559       .  S
C468        H474   1.105       .  S
C469        H475   1.087       .  S
C469        C470   1.364       .  D
C470        C696   1.478       .  S
C471        H476   1.083       .  S
C471        C472   1.358       .  D
C472        C683   1.476       .  S
C477        C478   1.507       .  S
C477        C483   1.522       .  S
C477        C481   1.557       .  S
C477        C736   1.517       .  S
C478        H485   1.089       .  S
C478        C479   1.361       .  D
C479        C480   1.556       .  S
C479        C709   1.471       .  S
C480        C484   1.549       .  S
C480        C482   1.528       .  S
C480        H486   1.110       .  S
C481        H487   1.084       .  S
C481        C482   1.367       .  D
C482        C767   1.480       .  S
C483        H488   1.084       .  S
C483        C484   1.360       .  D
C484        C657   1.471       .  S
C489        C490   1.545       .  S
C489        C495   1.530       .  S
C489        C493   1.512       .  S
C489        C739   1.527       .  S
C490        H497   1.084       .  S
C490        C491   1.369       .  D
C491        C492   1.538       .  S
C491        C722   1.482       .  S
C492        C496   1.553       .  S
C492        C494   1.552       .  S
C492        H498   1.110       .  S
C493        H499   1.087       .  S
C493        C494   1.366       .  D
C494        C633   1.474       .  S
C495        H500   1.085       .  S
C495        C496   1.361       .  D
C496        C644   1.487       .  S
C501        C502   1.512       .  S
C501        C507   1.525       .  S
C501        C505   1.542       .  S
C501        C753   1.518       .  S
C502        H509   1.088       .  S
C502        C503   1.364       .  D
C503        C504   1.553       .  S
C503        C618   1.472       .  S
C504        C508   1.553       .  S
C504        C506   1.529       .  S
C504        H510   1.110       .  S
C505        H511   1.085       .  S
C505        C506   1.360       .  D
C506        C725   1.470       .  S
C507        H512   1.086       .  S
C507        C508   1.362       .  D
C508        C670   1.472       .  S
O513        C516   1.265       .  A
O513       Cd518   2.536       .  S
C514        O523   1.266       .  A
C514        O519   1.263       .  A
O515        C521   1.270       .  A
O515       Cd518   2.533       .  S
C516        O524   1.265       .  A
C516        C568   1.485       .  S
C517        O522   1.259       .  A
C517        O520   1.267       .  A
C517        C621   1.473       .  S
Cd518       O525   2.503       .  S
Cd518       O524   2.503       .  S
Cd518       O523   2.560       .  S
Cd518       O519   2.379       .  S
Cd518       O522   2.475       .  S
Cd518       O520   2.525       .  S
C521        O525   1.267       .  A
C521        C530   1.489   1_655  S
O526        C529   1.263       .  A
O526       Cd531   2.532       .  S
C527        O536   1.264       .  A
C527        O532   1.266       .  A
O528        C534   1.261       .  A
O528       Cd531   2.486       .  S
C529        O537   1.264       .  A
C529        C542   1.483       .  S
C530        O535   1.268       .  A
C530        O533   1.267       .  A
Cd531       O538   2.504       .  S
Cd531       O537   2.512       .  S
Cd531       O536   2.530       .  S
Cd531       O532   2.447       .  S
Cd531       O535   2.536       .  S
Cd531       O533   2.513       .  S
C534        O538   1.266       .  A
C534        C703   1.473       .  S
O539        C542   1.262       .  A
O539       Cd544   2.489       .  S
C540        O549   1.266       .  A
C540        O545   1.266       .  A
O541        C547   1.266       .  A
O541       Cd544   2.478       .  S
C542        O550   1.268       .  A
C543        O548   1.269       .  A
C543        O546   1.259       .  A
C543        C560   1.477       .  S
Cd544       O551   2.497       .  S
Cd544       O550   2.536       .  S
Cd544       O548   2.562       .  S
Cd544       O546   2.432       .  S
C547        O551   1.263       .  A
O552        C555   1.261       .  A
O552       Cd557   2.488       .  S
C553        O562   1.267       .  A
C553        O558   1.265       .  A
O554        C560   1.269       .  A
O554       Cd557   2.548       .  S
C555        O563   1.269       .  A
C555        C605   1.486       .  S
C556        O561   1.269       .  A
C556        O559   1.261       .  A
Cd557       O564   2.440       .  S
Cd557       O563   2.567       .  S
Cd557       O561   2.492       .  S
Cd557       O559   2.473       .  S
C560        O564   1.263       .  A
O565        C568   1.262       .  A
O565       Cd570   2.493       .  S
C566        O575   1.266       .  A
C566        O571   1.266       .  A
O567        C573   1.268       .  A
O567       Cd570   2.552       .  S
C568        O576   1.269       .  A
C569        O574   1.262       .  A
C569        O572   1.267       .  A
Cd570       O577   2.446       .  S
Cd570       O576   2.546       .  S
Cd570       O574   2.491       .  S
Cd570       O572   2.479       .  S
C573        O577   1.262       .  A
C573        C582   1.479       .  S
O578        C581   1.263       .  A
O578       Cd583   2.491       .  S
C579        O588   1.265       .  A
C579        O584   1.264       .  A
O580        C586   1.263       .  A
O580       Cd583   2.458       .  S
C581        O589   1.269       .  A
C581        C594   1.485       .  S
C582        O587   1.270       .  A
C582        O585   1.260       .  A
Cd583       O590   2.521       .  S
Cd583       O589   2.540       .  S
Cd583       O587   2.560       .  S
Cd583       O585   2.435       .  S
C586        O590   1.264       .  A
O591        C594   1.264       .  A
O591       Cd596   2.540       .  S
C592        O601   1.265       .  A
C592        O597   1.263       .  A
O593        C599   1.261       .  A
O593       Cd596   2.480       .  S
C594        O602   1.264       .  A
C595        O600   1.269       .  A
C595        O598   1.267       .  A
C595        C608   1.487   1_655  S
Cd596       O603   2.519       .  S
Cd596       O602   2.512       .  S
Cd596       O601   2.552       .  S
Cd596       O597   2.426       .  S
Cd596       O600   2.522       .  S
Cd596       O598   2.505       .  S
C599        O603   1.266       .  A
C599        C634   1.474       .  S
O604        C607   1.270       .  A
O604       Cd609   2.545       .  S
C605        O614   1.266       .  A
C605        O610   1.266       .  A
O606        C612   1.258       .  A
O606       Cd609   2.424       .  S
C607        O615   1.263       .  A
C608        O613   1.267       .  A
C608        O611   1.267       .  A
Cd609       O616   2.540       .  S
Cd609       O615   2.362       .  S
Cd609       O614   2.494       .  S
Cd609       O610   2.542       .  S
Cd609       O613   2.523       .  S
Cd609       O611   2.514       .  S
C612        O616   1.269       .  A
C612        C712   1.468       .  S
O617        C620   1.261       .  A
O617       Cd622   2.499       .  S
C618        O627   1.267       .  A
C618        O623   1.263       .  A
O619        C625   1.269   1_565  A
O619       Cd622   2.552       .  S
C620        O628   1.268       .  A
C620        C672   1.487       .  S
C621        O626   1.267       .  A
C621        O624   1.263       .  A
Cd622       O629   2.464       .  S
Cd622       O628   2.556       .  S
Cd622       O627   2.507       .  S
Cd622       O623   2.395       .  S
Cd622       O626   2.479       .  S
Cd622       O624   2.483       .  S
C625        O629   1.264   1_545  A
C625        C638   1.483       .  S
O630        C633   1.263       .  A
O630       Cd635   2.388       .  S
C631        O640   1.269       .  A
C631        O636   1.261       .  A
C631        C646   1.485       .  S
O632        C638   1.270       .  A
O632       Cd635   2.567       .  S
C633        O641   1.266       .  A
C634        O639   1.265       .  A
C634        O637   1.263       .  A
Cd635       O642   2.444       .  S
Cd635       O641   2.521       .  S
Cd635       O640   2.559       .  S
Cd635       O636   2.479       .  S
Cd635       O639   2.483       .  S
Cd635       O637   2.494       .  S
C638        O642   1.260       .  A
O643        C646   1.267       .  A
O643       Cd648   2.547       .  S
C644        O653   1.270       .  A
C644        O649   1.264       .  A
O645        C651   1.260       .  A
O645       Cd648   2.450       .  S
C646        O654   1.265       .  A
C647        O652   1.268       .  A
C647        O650   1.268       .  A
C647        C664   1.486       .  S
Cd648       O655   2.541       .  S
Cd648       O654   2.490       .  S
Cd648       O652   2.520       .  S
Cd648       O650   2.507       .  S
C651        O655   1.267       .  A
O656        C659   1.265       .  A
O656       Cd661   2.529       .  S
C657        O666   1.265       .  A
C657        O662   1.265       .  A
O658        C664   1.268       .  A
O658       Cd661   2.521       .  S
C659        O667   1.266       .  A
C659        C711   1.484       .  S
C660        O665   1.257       .  A
C660        O663   1.268       .  A
Cd661       O668   2.505       .  S
Cd661       O667   2.508       .  S
Cd661       O665   2.471       .  S
Cd661       O663   2.523       .  S
C664        O668   1.267       .  A
O669        C672   1.264       .  A
O669       Cd674   2.537       .  S
C670        O679   1.266       .  A
C670        O675   1.265       .  A
O671        C677   1.268       .  A
O671       Cd674   2.538       .  S
C672        O680   1.266       .  A
C673        O678   1.269       .  A
C673        O676   1.258       .  A
Cd674       O681   2.519       .  S
Cd674       O680   2.517       .  S
Cd674       O678   2.529       .  S
Cd674       O676   2.468       .  S
C677        O681   1.267       .  A
C677        C686   1.492       .  S
O682        C685   1.263       .  A
O682       Cd687   2.524       .  S
C683        O692   1.266       .  A
C683        O688   1.265       .  A
O684        C690   1.260       .  A
O684       Cd687   2.477       .  S
C685        O693   1.264       .  A
C685        C698   1.478       .  S
C686        O691   1.269       .  A
C686        O689   1.266       .  A
Cd687       O694   2.519       .  S
Cd687       O693   2.488       .  S
Cd687       O691   2.542       .  S
Cd687       O689   2.517       .  S
C690        O694   1.267       .  A
O695        C698   1.262       .  A
O695       Cd700   2.462       .  S
C696        O705   1.263       .  A
C696        O701   1.263       .  A
O697        C703   1.267       .  A
O697       Cd700   2.493       .  S
C698        O706   1.270       .  A
C699        O704   1.269       .  A
C699        O702   1.262       .  A
C699        C716   1.483   1_565  S
Cd700       O707   2.477       .  S
Cd700       O706   2.533       .  S
Cd700       O705   2.516       .  S
Cd700       O701   2.393       .  S
Cd700       O704   2.562       .  S
Cd700       O702   2.458       .  S
C703        O707   1.263       .  A
O708        C711   1.263       .  A
O708       Cd713   2.497       .  S
C709        O718   1.264       .  A
C709        O714   1.261       .  A
O710        C716   1.270       .  A
O710       Cd713   2.549       .  S
C711        O719   1.269       .  A
C712        O717   1.266       .  A
C712        O715   1.265       .  A
Cd713       O720   2.457       .  S
Cd713       O719   2.538       .  S
Cd713       O718   2.495       .  S
Cd713       O714   2.420       .  S
Cd713       O717   2.430       .  S
Cd713       O715   2.494       .  S
C716        O720   1.264       .  A
C721        C722   1.409       .  A
C721        C726   1.408       .  A
C721        H728   1.086       .  S
C722        C723   1.412       .  A
C723        C724   1.388   1_545  A
C723        N730   1.427       .  S
C724        C725   1.395       .  A
C724        H729   1.086       .  S
C725        C726   1.406   1_565  A
C726        N727   1.429   1_545  S
N727        O731   1.262       .  A
N727        O732   1.262       .  A
N730        O734   1.259       .  A
N730        O733   1.261       .  A
C735        C736   1.396       .  A
C735        C740   1.392       .  A
C735        H742   1.084       .  S
C736        C737   1.409       .  A
C737        C738   1.398       .  A
C737        N744   1.439       .  S
C738        C739   1.409       .  A
C738        H743   1.085       .  S
C739        C740   1.416       .  A
C740        N741   1.429       .  S
N741        O745   1.261       .  A
N741        O746   1.262       .  A
N744        O748   1.263       .  A
N744        O747   1.263       .  A
C749        C750   1.402       .  A
C749        C754   1.397       .  A
C749        H756   1.086       .  S
C750        C751   1.415       .  A
C751        C752   1.391       .  A
C751        N758   1.431       .  S
C752        C753   1.400       .  A
C752        H757   1.083       .  S
C753        C754   1.418       .  A
C754        N755   1.440       .  S
N755        O759   1.263       .  A
N755        O760   1.262       .  A
N758        O762   1.262       .  A
N758        O761   1.262       .  A
C763        C764   1.414   1_545  A
C763        C768   1.404       .  A
C763        H770   1.081   1_545  S
C764        C765   1.415   1_565  A
C765        C766   1.398       .  A
C765        N772   1.424   1_545  S
C766        C767   1.394       .  A
C766        H771   1.063       .  S
C767        C768   1.405       .  A
C768        N769   1.432       .  S
N769        O773   1.261       .  A
N769        O774   1.263       .  A
N772        O776   1.262       .  A
N772        O775   1.260       .  A
C777        C778   1.399       .  A
C777        C782   1.396   1_655  A
C777        H784   1.084       .  S
C778        C779   1.409   1_655  A
C779        C780   1.399       .  A
C779        N786   1.439   1_455  S
C780        C781   1.410       .  A
C780        H785   1.085       .  S
C781        C782   1.416       .  A
C782        N783   1.429       .  S
N783        O787   1.262   1_556  A
N783        O788   1.262   1_556  A
N786        O790   1.263   1_655  A
N786        O789   1.263       .  A
C791        C792   1.400       .  A
C791        C796   1.395       .  A
C791        H798   1.075       .  S
C792        C793   1.411       .  A
C793        C794   1.408       .  A
C793        N800   1.429       .  S
C794        C795   1.406       .  A
C794        H799   1.075       .  S
C795        C796   1.412       .  A
C796        N797   1.428       .  S
N797        O801   1.261       .  A
N797        O802   1.261       .  A
N800        O804   1.262       .  A
N800        O803   1.262       .  A
C805        C806   1.400       .  A
C805        C810   1.397       .  A
C805        H812   1.083       .  S
C806        C807   1.406       .  A
C807        C808   1.405       .  A
C807        N814   1.429       .  S
C808        C809   1.407       .  A
C808        H813   1.085       .  S
C809        C810   1.415       .  A
C810        N811   1.430       .  S
N811        O815   1.262       .  A
N811        O816   1.261   1_556  A
N814        O818   1.261       .  A
N814        O817   1.262       .  A
C819        C820   1.411   1_455  A
C819        C824   1.398       .  A
C819        H826   1.084   1_455  S
C820        C821   1.421       .  A
C821        C822   1.394   1_655  A
C821        N828   1.430       .  S
C822        C823   1.397       .  A
C822        H827   1.083       .  S
C823        C824   1.404       .  A
C824        N825   1.430   1_556  S
N825        O829   1.261       .  A
N825        O830   1.262       .  A
N828        O832   1.261       .  A
N828        O831   1.263       .  A
