geometry optimzed in LAMMPS
_audit_creation_date              2020-11-30 
_audit_creation_method            'lammps2cif' 
_symmetry_space_group_name_H-M    'P1' 
_symmetry_Int_Tables_number       1 
_symmetry_cell_setting            triclinic 
loop_ 
_symmetry_equiv_pos_as_xyz 
  x,y,z 
_cell_length_a                    24.214702429487076 
_cell_length_b                    23.599839372932493 
_cell_length_c                    26.515023687399143 
_cell_angle_alpha                 90.0005395085076 
_cell_angle_beta                  90.01384824457641 
_cell_angle_gamma                 90.00520753714456 
loop_ 
_atom_site_label 
_atom_site_type_symbol 
_atom_site_fract_x 
_atom_site_fract_y 
_atom_site_fract_z 
_atom_site_charge 
C1          C  0.02817475  0.33325822  0.00444564     0.00980
C2          C  0.30514116  0.00012149  0.00445348     0.00980
C3          C  0.02817910  0.33337542  0.50462534     0.00980
C4          C  0.30515095  0.99989576  0.50463782     0.00980
Zn5        Zn  0.09930489  0.16604849  0.04219683     1.49720
Zn6        Zn  0.16696012  0.10199965  0.95541723     1.49360
Zn7        Zn  0.16633432  0.23138075  0.95541830     1.49110
Zn8        Zn  0.23402806  0.16733127  0.04220818     1.49480
O9          O  0.16665798  0.16668988  0.99971937    -1.83710
O10         O  0.05334912  0.09462043  0.03064418    -0.74340
O11         O  0.16701511  0.11984604  0.88133684    -0.74160
O12         O  0.10092410  0.27899441  0.96979487    -0.73680
O13         O  0.10211680  0.05332564  0.97033452    -0.74360
O14         O  0.05435420  0.23916509  0.03238130    -0.73960
O15         O  0.16626666  0.21353927  0.88133653    -0.74540
O16         O  0.27997960  0.23876037  0.03065758    -0.73930
O17         O  0.23237443  0.05438533  0.96980311    -0.74690
O18         O  0.23118094  0.28005369  0.97034694    -0.74080
O19         O  0.27897512  0.09421414  0.03239228    -0.74550
O20         O  0.21219468  0.17042348  0.11553076    -0.74450
O21         O  0.12116797  0.16295421  0.11551755    -0.74240
C22         C  0.06170216  0.05304958  0.00093378     0.77550
C23         C  0.16664130  0.16669247  0.85777925     0.78040
C24         C  0.06154313  0.27995174  0.00143340     0.77000
C25         C  0.27161119  0.28033044  0.00094651     0.77370
C26         C  0.27177081  0.05342774  0.00144297     0.78510
C27         C  0.16668337  0.16668851  0.13928090     0.77560
Zn28       Zn  0.09921350  0.16703629  0.54236951     1.49720
Zn29       Zn  0.16655102  0.10193333  0.45566773     1.49360
Zn30       Zn  0.16676011  0.23133571  0.45566810     1.49110
Zn31       Zn  0.23412935  0.16623652  0.54238632     1.49480
O32         O  0.16666498  0.16663540  0.49997759    -1.83710
O33         O  0.05426453  0.09416765  0.53227943    -0.74340
O34         O  0.16734168  0.11973494  0.38159696    -0.74160
O35         O  0.10207171  0.27991379  0.47070168    -0.73680
O36         O  0.10102422  0.05422096  0.46987488    -0.74360
O37         O  0.05335426  0.23870262  0.53107726    -0.73960
O38         O  0.16595895  0.21352780  0.38159904    -0.74540
O39         O  0.27907603  0.23910595  0.53229695    -0.73930
O40         O  0.23124329  0.05335794  0.47071447    -0.74690
O41         O  0.23229026  0.27904849  0.46988617    -0.74080
O42         O  0.27998457  0.09456634  0.53109849    -0.74550
O43         O  0.21244235  0.16424588  0.61571609    -0.74450
O44         O  0.12092140  0.16903697  0.61569840    -0.74240
C45         C  0.06155732  0.05332256  0.50145054     0.77550
C46         C  0.16665076  0.16663185  0.35814440     0.78040
C47         C  0.06168614  0.28023532  0.50129693     0.77000
C48         C  0.27177040  0.27994883  0.50146522     0.77370
C49         C  0.27164110  0.05303534  0.50131379     0.78510
C50         C  0.16668245  0.16664368  0.63924566     0.77560
C51         C  0.12705767  0.13470819  0.77530670    -0.01430
C52         C  0.16664707  0.16668987  0.80201634     0.08210
C53         C  0.20625006  0.19865704  0.77532653    -0.01550
C54         C  0.20576493  0.19944304  0.72223188    -0.01550
C55         C  0.16667980  0.16665122  0.69526333     0.08380
C56         C  0.12758010  0.13387744  0.72221378    -0.01750
Br57       Br  0.07598883  0.08515047  0.68720058    -0.00290
Br58       Br  0.07013822  0.09387595  0.81133195    -0.00370
Br59       Br  0.25739432  0.24812404  0.68723881    -0.00330
Br60       Br  0.26312782  0.23954381  0.81138374    -0.00310
C61         C  0.21156357  0.14342119  0.27605384    -0.01430
C62         C  0.16665634  0.16663580  0.30254484     0.08250
C63         C  0.12176271  0.18987236  0.27603149    -0.01550
C64         C  0.12167484  0.19037402  0.22291280    -0.01550
C65         C  0.16668412  0.16668386  0.19564228     0.08380
C66         C  0.21168434  0.14297765  0.22293405    -0.01750
Br67       Br  0.27335583  0.10713112  0.18914391    -0.00290
Br68       Br  0.27404442  0.11372979  0.31302601    -0.00370
Br69       Br  0.06004775  0.22630132  0.18909587    -0.00330
Br70       Br  0.05924805  0.21949950  0.31296919    -0.00310
C71         C  0.02817472  0.66659159  0.00444564     0.00980
C72         C  0.30514117  0.33345481  0.00445425     0.00980
C73         C  0.02817909  0.66670872  0.50462535     0.00980
C74         C  0.30515095  0.33322912  0.50463792     0.00980
Zn75       Zn  0.09930483  0.49938197  0.04219729     1.49720
Zn76       Zn  0.16696011  0.43533290  0.95541786     1.49360
Zn77       Zn  0.16633430  0.56471395  0.95541862     1.49110
Zn78       Zn  0.23402804  0.50066475  0.04220866     1.49480
O79         O  0.16665795  0.50002323  0.99971985    -1.83710
O80         O  0.05334907  0.42795384  0.03064484    -0.74340
O81         O  0.16701511  0.45317901  0.88133740    -0.74160
O82         O  0.10092409  0.61232766  0.96979506    -0.73680
O83         O  0.10211683  0.38665894  0.97033530    -0.74360
O84         O  0.05435415  0.57249854  0.03238156    -0.73960
O85         O  0.16626666  0.54687223  0.88133692    -0.74540
O86         O  0.27997958  0.57209382  0.03065789    -0.73930
O87         O  0.23237443  0.38771865  0.96980386    -0.74690
O88         O  0.23118091  0.61338692  0.97034713    -0.74080
O89         O  0.27897513  0.42754754  0.03239298    -0.74550
O90         O  0.21219460  0.50375717  0.11553120    -0.74450
O91         O  0.12116788  0.49628790  0.11551800    -0.74240
C92         C  0.06170216  0.38638291  0.00093454     0.77550
C93         C  0.16664131  0.50002538  0.85777972     0.78040
C94         C  0.06154311  0.61328509  0.00143356     0.77000
C95         C  0.27161117  0.61366379  0.00094670     0.77370
C96         C  0.27177081  0.38676109  0.00144373     0.78510
C97         C  0.16668329  0.50002224  0.13928134     0.77560
Zn98       Zn  0.09921347  0.50036961  0.54236988     1.49720
Zn99       Zn  0.16655102  0.43526671  0.45566805     1.49360
Zn100      Zn  0.16676010  0.56466896  0.45566847     1.49110
Zn101      Zn  0.23412935  0.49956985  0.54238670     1.49480
O102        O  0.16666497  0.49996871  0.49997799    -1.83710
O103        O  0.05426450  0.42750096  0.53227968    -0.74340
O104        O  0.16734164  0.45306830  0.38159731    -0.74160
O105        O  0.10207175  0.61324702  0.47070196    -0.73680
O106        O  0.10102427  0.38755433  0.46987514    -0.74360
O107        O  0.05335424  0.57203598  0.53107755    -0.73960
O108        O  0.16595890  0.54686115  0.38159945    -0.74540
O109        O  0.27907604  0.57243931  0.53229723    -0.73930
O110        O  0.23124328  0.38669134  0.47071470    -0.74690
O111        O  0.23229022  0.61238170  0.46988642    -0.74080
O112        O  0.27998456  0.42789965  0.53109878    -0.74550
O113        O  0.21244231  0.49757913  0.61571650    -0.74450
O114        O  0.12092135  0.50237015  0.61569882    -0.74240
C115        C  0.06155733  0.38665591  0.50145075     0.77550
C116        C  0.16665070  0.49996523  0.35814478     0.78040
C117        C  0.06168615  0.61356862  0.50129715     0.77000
C118        C  0.27177039  0.61328212  0.50146542     0.77370
C119        C  0.27164109  0.38636870  0.50131401     0.78510
C120        C  0.16668241  0.49997684  0.63924608     0.77560
C121        C  0.12705774  0.46804103  0.77530713    -0.01430
C122        C  0.16664714  0.50002269  0.80201680     0.08210
C123        C  0.20625011  0.53198991  0.77532700    -0.01550
C124        C  0.20576493  0.53277602  0.72223236    -0.01550
C125        C  0.16667977  0.49998426  0.69526376     0.08380
C126        C  0.12758011  0.46721041  0.72221420    -0.01750
Br127      Br  0.07598875  0.41848358  0.68720096    -0.00290
Br128      Br  0.07013839  0.42720862  0.81133237    -0.00370
Br129      Br  0.25739425  0.58145715  0.68723935    -0.00330
Br130      Br  0.26312792  0.57287657  0.81138425    -0.00310
C131        C  0.21156349  0.47675470  0.27605422    -0.01430
C132        C  0.16665625  0.49996925  0.30254524     0.08250
C133        C  0.12176263  0.52320587  0.27603194    -0.01550
C134        C  0.12167477  0.52370767  0.22291325    -0.01550
C135        C  0.16668405  0.50001756  0.19564271     0.08380
C136        C  0.21168427  0.47631128  0.22293443    -0.01750
Br137      Br  0.27335576  0.44046480  0.18914425    -0.00290
Br138      Br  0.27404432  0.44706318  0.31302635    -0.00370
Br139      Br  0.06004770  0.55963507  0.18909638    -0.00330
Br140      Br  0.05924794  0.55283289  0.31296970    -0.00310
C141        C  0.02817473  0.99992491  0.00444486     0.00980
C142        C  0.30514114  0.66678817  0.00445427     0.00980
C143        C  0.02817909  0.00004207  0.50462525     0.00980
C144        C  0.30515095  0.66656241  0.50463791     0.00980
Zn145      Zn  0.09930482  0.83271545  0.04219682     1.49720
Zn146      Zn  0.16696010  0.76866609  0.95541754     1.49360
Zn147      Zn  0.16633430  0.89804719  0.95541798     1.49110
Zn148      Zn  0.23402800  0.83399823  0.04220819     1.49480
O149        O  0.16665794  0.83335658  0.99971937    -1.83710
O150        O  0.05334906  0.76128729  0.03064455    -0.74340
O151        O  0.16701513  0.78651195  0.88133703    -0.74160
O152        O  0.10092409  0.94566097  0.96979429    -0.73680
O153        O  0.10211680  0.71999218  0.97033511    -0.74360
O154        O  0.05435417  0.90583195  0.03238086    -0.73960
O155        O  0.16626668  0.88020518  0.88133635    -0.74540
O156        O  0.27997954  0.90542723  0.03065722    -0.73930
O157        O  0.23237441  0.72105189  0.96980370    -0.74690
O158        O  0.23118094  0.94672023  0.97034635    -0.74080
O159        O  0.27897509  0.76088100  0.03239272    -0.74550
O160        O  0.21219454  0.83709088  0.11553074    -0.74450
O161        O  0.12116783  0.82962162  0.11551758    -0.74240
C162        C  0.06170214  0.71971626  0.00093436     0.77550
C163        C  0.16664135  0.83335827  0.85777925     0.78040
C164        C  0.06154311  0.94661843  0.00143280     0.77000
C165        C  0.27161117  0.94699712  0.00094594     0.77370
C166        C  0.27177078  0.72009444  0.00144358     0.78510
C167        C  0.16668324  0.83335599  0.13928090     0.77560
Zn168      Zn  0.09921348  0.83370293  0.54236952     1.49720
Zn169      Zn  0.16655101  0.76859997  0.45566769     1.49360
Zn170      Zn  0.16676010  0.89800234  0.45566815     1.49110
Zn171      Zn  0.23412933  0.83290316  0.54238631     1.49480
O172        O  0.16666496  0.83330201  0.49997759    -1.83710
O173        O  0.05426451  0.76083432  0.53227940    -0.74340
O174        O  0.16734161  0.78640166  0.38159690    -0.74160
O175        O  0.10207174  0.94658041  0.47070172    -0.73680
O176        O  0.10102421  0.72088757  0.46987488    -0.74360
O177        O  0.05335425  0.90536929  0.53107729    -0.73960
O178        O  0.16595887  0.88019452  0.38159911    -0.74540
O179        O  0.27907602  0.90577262  0.53229698    -0.73930
O180        O  0.23124331  0.72002457  0.47071443    -0.74690
O181        O  0.23229026  0.94571509  0.46988616    -0.74080
O182        O  0.27998455  0.76123302  0.53109846    -0.74550
O183        O  0.21244230  0.83091230  0.61571606    -0.74450
O184        O  0.12092135  0.83570339  0.61569843    -0.74240
C185        C  0.06155731  0.71998921  0.50145055     0.77550
C186        C  0.16665066  0.83329862  0.35814440     0.78040
C187        C  0.06168615  0.94690197  0.50129694     0.77000
C188        C  0.27177040  0.94661546  0.50146520     0.77370
C189        C  0.27164110  0.71970199  0.50131378     0.78510
C190        C  0.16668242  0.83330999  0.63924566     0.77560
C191        C  0.12705786  0.80137384  0.77530665    -0.01430
C192        C  0.16664726  0.83335548  0.80201635     0.08210
C193        C  0.20625025  0.86532269  0.77532658    -0.01550
C194        C  0.20576502  0.86610894  0.72223194    -0.01550
C195        C  0.16667982  0.83331726  0.69526333     0.08380
C196        C  0.12758018  0.80054334  0.72221372    -0.01750
Br197      Br  0.07598878  0.75181662  0.68720041    -0.00290
Br198      Br  0.07013857  0.76054132  0.81133186    -0.00370
Br199      Br  0.25739428  0.91479017  0.68723898    -0.00330
Br200      Br  0.26312817  0.90620918  0.81138384    -0.00310
C201        C  0.21156345  0.81008826  0.27605378    -0.01430
C202        C  0.16665620  0.83330272  0.30254484     0.08250
C203        C  0.12176258  0.85653941  0.27603157    -0.01550
C204        C  0.12167475  0.85704135  0.22291287    -0.01550
C205        C  0.16668404  0.83335131  0.19564228     0.08380
C206        C  0.21168426  0.80964500  0.22293398    -0.01750
Br207      Br  0.27335580  0.77379867  0.18914375    -0.00290
Br208      Br  0.27404426  0.78039662  0.31302585    -0.00370
Br209      Br  0.06004769  0.89296882  0.18909604    -0.00330
Br210      Br  0.05924787  0.88616630  0.31296936    -0.00310
C211        C  0.36150808  0.33325822  0.00444565     0.00980
C212        C  0.63847449  0.00012149  0.00445348     0.00980
C213        C  0.36151243  0.33337542  0.50462534     0.00980
C214        C  0.63848428  0.99989577  0.50463782     0.00980
Zn215      Zn  0.43263821  0.16604849  0.04219683     1.49720
Zn216      Zn  0.50029345  0.10199965  0.95541722     1.49360
Zn217      Zn  0.49966765  0.23138075  0.95541830     1.49110
Zn218      Zn  0.56736139  0.16733127  0.04220818     1.49480
O219        O  0.49999131  0.16668988  0.99971937    -1.83710
O220        O  0.38668246  0.09462043  0.03064418    -0.74340
O221        O  0.50034843  0.11984605  0.88133684    -0.74160
O222        O  0.43425744  0.27899442  0.96979488    -0.73680
O223        O  0.43545014  0.05332563  0.97033452    -0.74360
O224        O  0.38768753  0.23916509  0.03238130    -0.73960
O225        O  0.49959998  0.21353927  0.88133654    -0.74540
O226        O  0.61331293  0.23876037  0.03065758    -0.73930
O227        O  0.56570776  0.05438534  0.96980310    -0.74690
O228        O  0.56451427  0.28005368  0.97034694    -0.74080
O229        O  0.61230845  0.09421414  0.03239229    -0.74550
O230        O  0.54552801  0.17042348  0.11553076    -0.74450
O231        O  0.45450129  0.16295421  0.11551755    -0.74240
C232        C  0.39503549  0.05304957  0.00093378     0.77550
C233        C  0.49997461  0.16669248  0.85777925     0.78040
C234        C  0.39487646  0.27995174  0.00143341     0.77000
C235        C  0.60494452  0.28033044  0.00094651     0.77370
C236        C  0.60510414  0.05342775  0.00144297     0.78510
C237        C  0.50001670  0.16668851  0.13928090     0.77560
Zn238      Zn  0.43254682  0.16703630  0.54236950     1.49720
Zn239      Zn  0.49988435  0.10193334  0.45566773     1.49360
Zn240      Zn  0.50009344  0.23133571  0.45566811     1.49110
Zn241      Zn  0.56746268  0.16623652  0.54238633     1.49480
O242        O  0.49999831  0.16663540  0.49997759    -1.83710
O243        O  0.38759786  0.09416765  0.53227943    -0.74340
O244        O  0.50067501  0.11973494  0.38159696    -0.74160
O245        O  0.43540504  0.27991380  0.47070168    -0.73680
O246        O  0.43435756  0.05422095  0.46987488    -0.74360
O247        O  0.38668759  0.23870262  0.53107725    -0.73960
O248        O  0.49929228  0.21352781  0.38159904    -0.74540
O249        O  0.61240936  0.23910595  0.53229696    -0.73930
O250        O  0.56457663  0.05335795  0.47071446    -0.74690
O251        O  0.56562360  0.27904848  0.46988617    -0.74080
O252        O  0.61331789  0.09456634  0.53109850    -0.74550
O253        O  0.54577566  0.16424589  0.61571610    -0.74450
O254        O  0.45425471  0.16903698  0.61569839    -0.74240
C255        C  0.39489065  0.05332256  0.50145053     0.77550
C256        C  0.49998408  0.16663185  0.35814440     0.78040
C257        C  0.39501947  0.28023532  0.50129692     0.77000
C258        C  0.60510374  0.27994882  0.50146522     0.77370
C259        C  0.60497443  0.05303534  0.50131379     0.78510
C260        C  0.50001576  0.16664369  0.63924566     0.77560
C261        C  0.46039096  0.13470822  0.77530670    -0.01430
C262        C  0.49998037  0.16668989  0.80201634     0.08210
C263        C  0.53958335  0.19865707  0.77532653    -0.01550
C264        C  0.53909823  0.19944306  0.72223188    -0.01550
C265        C  0.50001309  0.16665124  0.69526333     0.08380
C266        C  0.46091339  0.13387747  0.72221378    -0.01750
Br267      Br  0.40932209  0.08515053  0.68720058    -0.00290
Br268      Br  0.40347151  0.09387599  0.81133196    -0.00370
Br269      Br  0.59072759  0.24812408  0.68723881    -0.00330
Br270      Br  0.59646112  0.23954384  0.81138374    -0.00310
C271        C  0.54489689  0.14342120  0.27605385    -0.01430
C272        C  0.49998966  0.16663581  0.30254484     0.08250
C273        C  0.45509603  0.18987236  0.27603149    -0.01550
C274        C  0.45500816  0.19037402  0.22291280    -0.01550
C275        C  0.50001744  0.16668386  0.19564228     0.08380
C276        C  0.54501767  0.14297765  0.22293405    -0.01750
Br277      Br  0.60668916  0.10713112  0.18914391    -0.00290
Br278      Br  0.60737774  0.11372979  0.31302602    -0.00370
Br279      Br  0.39338106  0.22630131  0.18909587    -0.00330
Br280      Br  0.39258136  0.21949949  0.31296919    -0.00310
C281        C  0.36150806  0.66659159  0.00444563     0.00980
C282        C  0.63847450  0.33345481  0.00445425     0.00980
C283        C  0.36151243  0.66670872  0.50462535     0.00980
C284        C  0.63848428  0.33322912  0.50463792     0.00980
Zn285      Zn  0.43263816  0.49938197  0.04219729     1.49720
Zn286      Zn  0.50029345  0.43533290  0.95541786     1.49360
Zn287      Zn  0.49966764  0.56471394  0.95541862     1.49110
Zn288      Zn  0.56736138  0.50066474  0.04220866     1.49480
O289        O  0.49999129  0.50002323  0.99971985    -1.83710
O290        O  0.38668241  0.42795384  0.03064485    -0.74340
O291        O  0.50034845  0.45317900  0.88133740    -0.74160
O292        O  0.43425743  0.61232765  0.96979506    -0.73680
O293        O  0.43545016  0.38665894  0.97033530    -0.74360
O294        O  0.38768749  0.57249855  0.03238156    -0.73960
O295        O  0.49960000  0.54687222  0.88133691    -0.74540
O296        O  0.61331292  0.57209382  0.03065789    -0.73930
O297        O  0.56570776  0.38771865  0.96980387    -0.74690
O298        O  0.56451425  0.61338692  0.97034714    -0.74080
O299        O  0.61230846  0.42754754  0.03239298    -0.74550
O300        O  0.54552794  0.50375717  0.11553120    -0.74450
O301        O  0.45450122  0.49628790  0.11551800    -0.74240
C302        C  0.39503549  0.38638291  0.00093454     0.77550
C303        C  0.49997466  0.50002537  0.85777972     0.78040
C304        C  0.39487644  0.61328509  0.00143356     0.77000
C305        C  0.60494450  0.61366379  0.00094670     0.77370
C306        C  0.60510414  0.38676109  0.00144373     0.78510
C307        C  0.50001663  0.50002224  0.13928134     0.77560
Zn308      Zn  0.43254680  0.50036961  0.54236989     1.49720
Zn309      Zn  0.49988436  0.43526671  0.45566806     1.49360
Zn310      Zn  0.50009343  0.56466896  0.45566847     1.49110
Zn311      Zn  0.56746269  0.49956985  0.54238669     1.49480
O312        O  0.49999830  0.49996871  0.49997799    -1.83710
O313        O  0.38759783  0.42750096  0.53227968    -0.74340
O314        O  0.50067498  0.45306830  0.38159731    -0.74160
O315        O  0.43540508  0.61324702  0.47070196    -0.73680
O316        O  0.43435760  0.38755434  0.46987514    -0.74360
O317        O  0.38668758  0.57203598  0.53107756    -0.73960
O318        O  0.49929224  0.54686115  0.38159945    -0.74540
O319        O  0.61240938  0.57243931  0.53229722    -0.73930
O320        O  0.56457661  0.38669134  0.47071471    -0.74690
O321        O  0.56562355  0.61238170  0.46988642    -0.74080
O322        O  0.61331790  0.42789966  0.53109877    -0.74550
O323        O  0.54577566  0.49757913  0.61571649    -0.74450
O324        O  0.45425470  0.50237015  0.61569882    -0.74240
C325        C  0.39489066  0.38665592  0.50145075     0.77550
C326        C  0.49998404  0.49996523  0.35814478     0.78040
C327        C  0.39501949  0.61356862  0.50129715     0.77000
C328        C  0.60510373  0.61328211  0.50146541     0.77370
C329        C  0.60497443  0.38636870  0.50131401     0.78510
C330        C  0.50001576  0.49997684  0.63924608     0.77560
C331        C  0.46039109  0.46804102  0.77530713    -0.01430
C332        C  0.49998049  0.50002268  0.80201680     0.08210
C333        C  0.53958347  0.53198989  0.77532700    -0.01550
C334        C  0.53909830  0.53277600  0.72223236    -0.01550
C335        C  0.50001313  0.49998425  0.69526376     0.08380
C336        C  0.46091347  0.46721040  0.72221420    -0.01750
Br337      Br  0.40932212  0.41848356  0.68720096    -0.00290
Br338      Br  0.40347175  0.42720861  0.81133237    -0.00370
Br339      Br  0.59072762  0.58145712  0.68723935    -0.00330
Br340      Br  0.59646129  0.57287655  0.81138425    -0.00310
C341        C  0.54489683  0.47675472  0.27605422    -0.01430
C342        C  0.49998959  0.49996925  0.30254524     0.08250
C343        C  0.45509596  0.52320586  0.27603194    -0.01550
C344        C  0.45500811  0.52370766  0.22291325    -0.01550
C345        C  0.50001739  0.50001757  0.19564271     0.08380
C346        C  0.54501762  0.47631130  0.22293443    -0.01750
Br347      Br  0.60668913  0.44046485  0.18914425    -0.00290
Br348      Br  0.60737767  0.44706322  0.31302635    -0.00370
Br349      Br  0.39338102  0.55963504  0.18909638    -0.00330
Br350      Br  0.39258127  0.55283285  0.31296970    -0.00310
C351        C  0.36150807  0.99992491  0.00444486     0.00980
C352        C  0.63847448  0.66678817  0.00445427     0.00980
C353        C  0.36151243  0.00004207  0.50462525     0.00980
C354        C  0.63848428  0.66656241  0.50463790     0.00980
Zn355      Zn  0.43263816  0.83271544  0.04219682     1.49720
Zn356      Zn  0.50029344  0.76866609  0.95541754     1.49360
Zn357      Zn  0.49966764  0.89804718  0.95541798     1.49110
Zn358      Zn  0.56736133  0.83399823  0.04220819     1.49480
O359        O  0.49999127  0.83335658  0.99971937    -1.83710
O360        O  0.38668240  0.76128729  0.03064455    -0.74340
O361        O  0.50034848  0.78651195  0.88133703    -0.74160
O362        O  0.43425742  0.94566097  0.96979428    -0.73680
O363        O  0.43545013  0.71999218  0.97033511    -0.74360
O364        O  0.38768751  0.90583195  0.03238086    -0.73960
O365        O  0.49960002  0.88020518  0.88133635    -0.74540
O366        O  0.61331287  0.90542723  0.03065722    -0.73930
O367        O  0.56570775  0.72105189  0.96980370    -0.74690
O368        O  0.56451427  0.94672023  0.97034635    -0.74080
O369        O  0.61230843  0.76088100  0.03239272    -0.74550
O370        O  0.54552787  0.83709088  0.11553074    -0.74450
O371        O  0.45450116  0.82962161  0.11551757    -0.74240
C372        C  0.39503547  0.71971626  0.00093436     0.77550
C373        C  0.49997470  0.83335826  0.85777925     0.78040
C374        C  0.39487645  0.94661843  0.00143280     0.77000
C375        C  0.60494450  0.94699713  0.00094594     0.77370
C376        C  0.60510412  0.72009444  0.00144358     0.78510
C377        C  0.50001658  0.83335598  0.13928090     0.77560
Zn378      Zn  0.43254682  0.83370293  0.54236952     1.49720
Zn379      Zn  0.49988434  0.76859996  0.45566769     1.49360
Zn380      Zn  0.50009344  0.89800234  0.45566815     1.49110
Zn381      Zn  0.56746267  0.83290316  0.54238630     1.49480
O382        O  0.49999830  0.83330201  0.49997759    -1.83710
O383        O  0.38759785  0.76083432  0.53227941    -0.74340
O384        O  0.50067494  0.78640165  0.38159690    -0.74160
O385        O  0.43540507  0.94658041  0.47070172    -0.73680
O386        O  0.43435755  0.72088756  0.46987488    -0.74360
O387        O  0.38668759  0.90536929  0.53107730    -0.73960
O388        O  0.49929221  0.88019452  0.38159911    -0.74540
O389        O  0.61240935  0.90577262  0.53229697    -0.73930
O390        O  0.56457665  0.72002456  0.47071443    -0.74690
O391        O  0.56562359  0.94571509  0.46988616    -0.74080
O392        O  0.61331789  0.76123302  0.53109845    -0.74550
O393        O  0.54577565  0.83091229  0.61571606    -0.74450
O394        O  0.45425470  0.83570338  0.61569843    -0.74240
C395        C  0.39489064  0.71998921  0.50145055     0.77550
C396        C  0.49998399  0.83329861  0.35814440     0.78040
C397        C  0.39501949  0.94690197  0.50129694     0.77000
C398        C  0.60510373  0.94661547  0.50146520     0.77370
C399        C  0.60497444  0.71970199  0.50131377     0.78510
C400        C  0.50001577  0.83330998  0.63924566     0.77560
C401        C  0.46039122  0.80137382  0.77530665    -0.01430
C402        C  0.49998062  0.83335547  0.80201634     0.08210
C403        C  0.53958360  0.86532268  0.77532657    -0.01550
C404        C  0.53909838  0.86610893  0.72223194    -0.01550
C405        C  0.50001318  0.83331725  0.69526333     0.08380
C406        C  0.46091355  0.80054332  0.72221372    -0.01750
Br407      Br  0.40932216  0.75181659  0.68720041    -0.00290
Br408      Br  0.40347193  0.76054129  0.81133186    -0.00370
Br409      Br  0.59072763  0.91479016  0.68723898    -0.00330
Br410      Br  0.59646152  0.90620918  0.81138384    -0.00310
C411        C  0.54489678  0.81008825  0.27605378    -0.01430
C412        C  0.49998953  0.83330271  0.30254484     0.08250
C413        C  0.45509592  0.85653940  0.27603157    -0.01550
C414        C  0.45500808  0.85704134  0.22291287    -0.01550
C415        C  0.50001737  0.83335130  0.19564228     0.08380
C416        C  0.54501759  0.80964498  0.22293398    -0.01750
Br417      Br  0.60668913  0.77379864  0.18914374    -0.00290
Br418      Br  0.60737759  0.78039660  0.31302585    -0.00370
Br419      Br  0.39338102  0.89296880  0.18909604    -0.00330
Br420      Br  0.39258121  0.88616629  0.31296936    -0.00310
C421        C  0.69484141  0.33325822  0.00444564     0.00980
C422        C  0.97180783  0.00012149  0.00445348     0.00980
C423        C  0.69484576  0.33337542  0.50462534     0.00980
C424        C  0.97181762  0.99989576  0.50463782     0.00980
Zn425      Zn  0.76597155  0.16604849  0.04219683     1.49720
Zn426      Zn  0.83362678  0.10199965  0.95541723     1.49360
Zn427      Zn  0.83300098  0.23138075  0.95541830     1.49110
Zn428      Zn  0.90069472  0.16733127  0.04220818     1.49480
O429        O  0.83332464  0.16668988  0.99971937    -1.83710
O430        O  0.72001579  0.09462043  0.03064419    -0.74340
O431        O  0.83368177  0.11984604  0.88133684    -0.74160
O432        O  0.76759077  0.27899441  0.96979488    -0.73680
O433        O  0.76878347  0.05332564  0.97033452    -0.74360
O434        O  0.72102086  0.23916509  0.03238130    -0.73960
O435        O  0.83293332  0.21353927  0.88133654    -0.74540
O436        O  0.94664627  0.23876037  0.03065758    -0.73930
O437        O  0.89904109  0.05438533  0.96980310    -0.74690
O438        O  0.89784761  0.28005368  0.97034694    -0.74080
O439        O  0.94564179  0.09421414  0.03239228    -0.74550
O440        O  0.87886134  0.17042348  0.11553076    -0.74450
O441        O  0.78783463  0.16295421  0.11551755    -0.74240
C442        C  0.72836882  0.05304958  0.00093379     0.77550
C443        C  0.83330796  0.16669247  0.85777925     0.78040
C444        C  0.72820980  0.27995174  0.00143340     0.77000
C445        C  0.93827786  0.28033044  0.00094651     0.77370
C446        C  0.93843747  0.05342775  0.00144297     0.78510
C447        C  0.83335004  0.16668851  0.13928090     0.77560
Zn448      Zn  0.76588016  0.16703629  0.54236950     1.49720
Zn449      Zn  0.83321769  0.10193334  0.45566773     1.49360
Zn450      Zn  0.83342678  0.23133571  0.45566811     1.49110
Zn451      Zn  0.90079602  0.16623652  0.54238633     1.49480
O452        O  0.83333164  0.16663540  0.49997760    -1.83710
O453        O  0.72093119  0.09416765  0.53227943    -0.74340
O454        O  0.83400835  0.11973494  0.38159696    -0.74160
O455        O  0.76873838  0.27991379  0.47070169    -0.73680
O456        O  0.76769089  0.05422096  0.46987488    -0.74360
O457        O  0.72002092  0.23870262  0.53107726    -0.73960
O458        O  0.83262561  0.21352781  0.38159904    -0.74540
O459        O  0.94574270  0.23910595  0.53229695    -0.73930
O460        O  0.89790996  0.05335795  0.47071447    -0.74690
O461        O  0.89895694  0.27904848  0.46988617    -0.74080
O462        O  0.94665123  0.09456634  0.53109850    -0.74550
O463        O  0.87910900  0.16424589  0.61571610    -0.74450
O464        O  0.78758805  0.16903698  0.61569839    -0.74240
C465        C  0.72822399  0.05332257  0.50145053     0.77550
C466        C  0.83331742  0.16663185  0.35814440     0.78040
C467        C  0.72835281  0.28023532  0.50129693     0.77000
C468        C  0.93843707  0.27994882  0.50146522     0.77370
C469        C  0.93830776  0.05303534  0.50131379     0.78510
C470        C  0.83334910  0.16664369  0.63924566     0.77560
C471        C  0.79372431  0.13470820  0.77530670    -0.01430
C472        C  0.83331372  0.16668988  0.80201635     0.08210
C473        C  0.87291671  0.19865705  0.77532653    -0.01550
C474        C  0.87243158  0.19944305  0.72223188    -0.01550
C475        C  0.83334644  0.16665123  0.69526333     0.08380
C476        C  0.79424674  0.13387745  0.72221378    -0.01750
Br477      Br  0.74265546  0.08515050  0.68720058    -0.00290
Br478      Br  0.73680486  0.09387597  0.81133196    -0.00370
Br479      Br  0.92406096  0.24812405  0.68723881    -0.00330
Br480      Br  0.92979447  0.23954383  0.81138374    -0.00310
C481        C  0.87823023  0.14342121  0.27605385    -0.01430
C482        C  0.83332300  0.16663581  0.30254484     0.08250
C483        C  0.78842937  0.18987235  0.27603150    -0.01550
C484        C  0.78834149  0.19037401  0.22291280    -0.01550
C485        C  0.83335078  0.16668386  0.19564228     0.08380
C486        C  0.87835101  0.14297766  0.22293405    -0.01750
Br487      Br  0.94002251  0.10713115  0.18914391    -0.00290
Br488      Br  0.94071110  0.11372982  0.31302602    -0.00370
Br489      Br  0.72671439  0.22630128  0.18909588    -0.00330
Br490      Br  0.72591469  0.21949947  0.31296920    -0.00310
C491        C  0.69484139  0.66659158  0.00444564     0.00980
C492        C  0.97180783  0.33345481  0.00445425     0.00980
C493        C  0.69484576  0.66670871  0.50462535     0.00980
C494        C  0.97181762  0.33322912  0.50463792     0.00980
Zn495      Zn  0.76597150  0.49938197  0.04219729     1.49720
Zn496      Zn  0.83362678  0.43533289  0.95541786     1.49360
Zn497      Zn  0.83300097  0.56471394  0.95541862     1.49110
Zn498      Zn  0.90069472  0.50066474  0.04220866     1.49480
O499        O  0.83332463  0.50002323  0.99971985    -1.83710
O500        O  0.72001574  0.42795384  0.03064485    -0.74340
O501        O  0.83368179  0.45317900  0.88133740    -0.74160
O502        O  0.76759076  0.61232765  0.96979505    -0.73680
O503        O  0.76878350  0.38665894  0.97033530    -0.74360
O504        O  0.72102082  0.57249854  0.03238156    -0.73960
O505        O  0.83293334  0.54687222  0.88133691    -0.74540
O506        O  0.94664625  0.57209382  0.03065789    -0.73930
O507        O  0.89904109  0.38771865  0.96980387    -0.74690
O508        O  0.89784758  0.61338692  0.97034714    -0.74080
O509        O  0.94564180  0.42754754  0.03239298    -0.74550
O510        O  0.87886128  0.50375717  0.11553120    -0.74450
O511        O  0.78783456  0.49628790  0.11551800    -0.74240
C512        C  0.72836883  0.38638291  0.00093454     0.77550
C513        C  0.83330800  0.50002537  0.85777972     0.78040
C514        C  0.72820978  0.61328509  0.00143356     0.77000
C515        C  0.93827783  0.61366379  0.00094670     0.77370
C516        C  0.93843748  0.38676109  0.00144373     0.78510
C517        C  0.83334997  0.50002223  0.13928134     0.77560
Zn518      Zn  0.76588014  0.50036960  0.54236989     1.49720
Zn519      Zn  0.83321769  0.43526671  0.45566805     1.49360
Zn520      Zn  0.83342677  0.56466896  0.45566847     1.49110
Zn521      Zn  0.90079603  0.49956985  0.54238669     1.49480
O522        O  0.83333164  0.49996870  0.49997799    -1.83710
O523        O  0.72093117  0.42750096  0.53227968    -0.74340
O524        O  0.83400832  0.45306830  0.38159731    -0.74160
O525        O  0.76873842  0.61324702  0.47070195    -0.73680
O526        O  0.76769093  0.38755434  0.46987514    -0.74360
O527        O  0.72002092  0.57203598  0.53107756    -0.73960
O528        O  0.83262558  0.54686115  0.38159945    -0.74540
O529        O  0.94574271  0.57243931  0.53229722    -0.73930
O530        O  0.89790994  0.38669134  0.47071471    -0.74690
O531        O  0.89895688  0.61238171  0.46988642    -0.74080
O532        O  0.94665123  0.42789965  0.53109876    -0.74550
O533        O  0.87910901  0.49757912  0.61571649    -0.74450
O534        O  0.78758805  0.50237015  0.61569883    -0.74240
C535        C  0.72822399  0.38665591  0.50145075     0.77550
C536        C  0.83331738  0.49996522  0.35814478     0.78040
C537        C  0.72835282  0.61356861  0.50129715     0.77000
C538        C  0.93843706  0.61328212  0.50146541     0.77370
C539        C  0.93830776  0.38636869  0.50131400     0.78510
C540        C  0.83334911  0.49997683  0.63924608     0.77560
C541        C  0.79372445  0.46804100  0.77530713    -0.01430
C542        C  0.83331384  0.50002267  0.80201680     0.08210
C543        C  0.87291682  0.53198988  0.77532700    -0.01550
C544        C  0.87243165  0.53277599  0.72223236    -0.01550
C545        C  0.83334649  0.49998424  0.69526376     0.08380
C546        C  0.79424683  0.46721038  0.72221420    -0.01750
Br547      Br  0.74265549  0.41848353  0.68720095    -0.00290
Br548      Br  0.73680511  0.42720858  0.81133237    -0.00370
Br549      Br  0.92406098  0.58145710  0.68723935    -0.00330
Br550      Br  0.92979463  0.57287654  0.81138426    -0.00310
C551        C  0.87823017  0.47675470  0.27605422    -0.01430
C552        C  0.83332294  0.49996925  0.30254524     0.08250
C553        C  0.78842931  0.52320587  0.27603194    -0.01550
C554        C  0.78834146  0.52370767  0.22291325    -0.01550
C555        C  0.83335074  0.50001756  0.19564271     0.08380
C556        C  0.87835096  0.47631128  0.22293443    -0.01750
Br557      Br  0.94002245  0.44046480  0.18914425    -0.00290
Br558      Br  0.94071100  0.44706317  0.31302635    -0.00370
Br559      Br  0.72671439  0.55963508  0.18909638    -0.00330
Br560      Br  0.72591463  0.55283289  0.31296970    -0.00310
C561        C  0.69484140  0.99992491  0.00444487     0.00980
C562        C  0.97180781  0.66678817  0.00445427     0.00980
C563        C  0.69484576  0.00004207  0.50462525     0.00980
C564        C  0.97181762  0.66656242  0.50463791     0.00980
Zn565      Zn  0.76597149  0.83271544  0.04219682     1.49720
Zn566      Zn  0.83362676  0.76866609  0.95541754     1.49360
Zn567      Zn  0.83300097  0.89804719  0.95541799     1.49110
Zn568      Zn  0.90069466  0.83399823  0.04220819     1.49480
O569        O  0.83332460  0.83335658  0.99971937    -1.83710
O570        O  0.72001573  0.76128729  0.03064455    -0.74340
O571        O  0.83368179  0.78651196  0.88133702    -0.74160
O572        O  0.76759076  0.94566097  0.96979430    -0.73680
O573        O  0.76878347  0.71999218  0.97033511    -0.74360
O574        O  0.72102083  0.90583195  0.03238087    -0.73960
O575        O  0.83293333  0.88020518  0.88133635    -0.74540
O576        O  0.94664620  0.90542723  0.03065722    -0.73930
O577        O  0.89904108  0.72105189  0.96980369    -0.74690
O578        O  0.89784760  0.94672023  0.97034635    -0.74080
O579        O  0.94564176  0.76088100  0.03239272    -0.74550
O580        O  0.87886121  0.83709088  0.11553074    -0.74450
O581        O  0.78783449  0.82962161  0.11551758    -0.74240
C582        C  0.72836880  0.71971626  0.00093436     0.77550
C583        C  0.83330801  0.83335827  0.85777925     0.78040
C584        C  0.72820978  0.94661843  0.00143281     0.77000
C585        C  0.93827784  0.94699713  0.00094593     0.77370
C586        C  0.93843745  0.72009444  0.00144358     0.78510
C587        C  0.83334991  0.83335599  0.13928090     0.77560
Zn588      Zn  0.76588014  0.83370293  0.54236951     1.49720
Zn589      Zn  0.83321768  0.76859997  0.45566769     1.49360
Zn590      Zn  0.83342677  0.89800234  0.45566815     1.49110
Zn591      Zn  0.90079600  0.83290316  0.54238631     1.49480
O592        O  0.83333163  0.83330201  0.49997759    -1.83710
O593        O  0.72093118  0.76083432  0.53227940    -0.74340
O594        O  0.83400828  0.78640166  0.38159690    -0.74160
O595        O  0.76873840  0.94658042  0.47070172    -0.73680
O596        O  0.76769089  0.72088756  0.46987488    -0.74360
O597        O  0.72002091  0.90536929  0.53107728    -0.73960
O598        O  0.83262554  0.88019452  0.38159911    -0.74540
O599        O  0.94574268  0.90577263  0.53229698    -0.73930
O600        O  0.89790998  0.72002457  0.47071443    -0.74690
O601        O  0.89895693  0.94571509  0.46988616    -0.74080
O602        O  0.94665121  0.76123302  0.53109847    -0.74550
O603        O  0.87910896  0.83091230  0.61571607    -0.74450
O604        O  0.78758801  0.83570339  0.61569843    -0.74240
C605        C  0.72822398  0.71998920  0.50145055     0.77550
C606        C  0.83331732  0.83329862  0.35814440     0.78040
C607        C  0.72835282  0.94690197  0.50129693     0.77000
C608        C  0.93843706  0.94661547  0.50146521     0.77370
C609        C  0.93830777  0.71970199  0.50131378     0.78510
C610        C  0.83334907  0.83330999  0.63924566     0.77560
C611        C  0.79372450  0.80137385  0.77530665    -0.01430
C612        C  0.83331391  0.83335549  0.80201635     0.08210
C613        C  0.87291689  0.86532271  0.77532657    -0.01550
C614        C  0.87243166  0.86610895  0.72223194    -0.01550
C615        C  0.83334647  0.83331727  0.69526333     0.08380
C616        C  0.79424683  0.80054335  0.72221372    -0.01750
Br617      Br  0.74265542  0.75181663  0.68720041    -0.00290
Br618      Br  0.73680522  0.76054133  0.81133186    -0.00370
Br619      Br  0.92406091  0.91479020  0.68723898    -0.00330
Br620      Br  0.92979481  0.90620921  0.81138384    -0.00310
C621        C  0.87823012  0.81008827  0.27605378    -0.01430
C622        C  0.83332286  0.83330272  0.30254484     0.08250
C623        C  0.78842924  0.85653940  0.27603157    -0.01550
C624        C  0.78834141  0.85704133  0.22291287    -0.01550
C625        C  0.83335070  0.83335131  0.19564229     0.08380
C626        C  0.87835093  0.80964500  0.22293398    -0.01750
Br627      Br  0.94002248  0.77379868  0.18914375    -0.00290
Br628      Br  0.94071093  0.78039664  0.31302585    -0.00370
Br629      Br  0.72671434  0.89296879  0.18909604    -0.00330
Br630      Br  0.72591453  0.88616627  0.31296937    -0.00310
loop_ 
_geom_bond_atom_site_label_1 
_geom_bond_atom_site_label_2 
_geom_bond_distance 
_geom_bond_site_symmetry_2 
_ccdc_geom_bond_type 
C1           C24   1.497       .  S
C1           C92   1.496       .  S
C1          C492   1.365   1_455  D
C2           C26   1.497       .  S
C2          C165   1.496   1_545  S
C2          C351   1.365   1_545  D
C3           C47   1.496       .  S
C3          C115   1.497       .  S
C3          C494   1.365   1_455  D
C4           C49   1.496   1_565  S
C4          C188   1.497       .  S
C4          C353   1.365   1_565  D
Zn5           O9   1.982   1_554  S
Zn5          O10   2.043       .  S
Zn5          O14   2.057       .  S
Zn5          O21   2.016       .  S
Zn6           O9   1.926       .  S
Zn6          O11   2.009       .  S
Zn6          O13   1.985       .  S
Zn6          O17   1.979       .  S
Zn7           O9   1.926       .  S
Zn7          O12   1.979       .  S
Zn7          O15   2.009       .  S
Zn7          O18   1.985       .  S
Zn8           O9   1.982   1_554  S
Zn8          O16   2.043       .  S
Zn8          O19   2.057       .  S
Zn8          O20   2.016       .  S
O10          C22   1.274       .  A
O11          C23   1.270       .  A
O12          C24   1.270   1_556  A
O13          C22   1.271   1_556  A
O14          C24   1.277       .  A
O15          C23   1.270       .  A
O16          C25   1.274       .  A
O17          C26   1.270   1_556  A
O18          C25   1.271   1_556  A
O19          C26   1.277       .  A
O20          C27   1.272       .  A
O21          C27   1.272       .  A
C22         C141   1.496   1_545  S
C23          C52   1.479       .  S
C25          C72   1.496       .  S
C27          C65   1.494       .  S
Zn28         O32   1.983       .  S
Zn28         O33   2.053       .  S
Zn28         O37   2.045       .  S
Zn28         O44   2.015       .  S
Zn29         O32   1.927       .  S
Zn29         O34   2.009       .  S
Zn29         O36   1.982       .  S
Zn29         O40   1.982       .  S
Zn30         O32   1.927       .  S
Zn30         O35   1.982       .  S
Zn30         O38   2.008       .  S
Zn30         O41   1.982       .  S
Zn31         O32   1.983       .  S
Zn31         O39   2.053       .  S
Zn31         O42   2.045       .  S
Zn31         O43   2.015       .  S
O33          C45   1.276       .  A
O34          C46   1.270       .  A
O35          C47   1.271       .  A
O36          C45   1.271       .  A
O37          C47   1.275       .  A
O38          C46   1.270       .  A
O39          C48   1.276       .  A
O40          C49   1.271       .  A
O41          C48   1.271       .  A
O42          C49   1.275       .  A
O43          C50   1.273       .  A
O44          C50   1.273       .  A
C45         C143   1.497       .  S
C46          C62   1.474       .  S
C48          C74   1.497       .  S
C50          C55   1.485       .  S
C51          C52   1.411       .  A
C51          C56   1.408       .  A
C51         Br58   1.934       .  S
C52          C53   1.411       .  A
C53          C54   1.408       .  A
C53         Br60   1.934       .  S
C54          C55   1.416       .  A
C54         Br59   1.935       .  S
C55          C56   1.416       .  A
C56         Br57   1.935       .  S
C61          C62   1.406       .  A
C61          C66   1.409       .  A
C61         Br68   1.934       .  S
C62          C63   1.406       .  A
C63          C64   1.408       .  A
C63         Br70   1.934       .  S
C64          C65   1.423       .  A
C64         Br69   1.936       .  S
C65          C66   1.423       .  A
C66         Br67   1.936       .  S
C71          C94   1.497       .  S
C71         C162   1.496       .  S
C71         C562   1.365   1_455  D
C72          C96   1.497       .  S
C72         C211   1.365       .  D
C73         C185   1.497       .  S
C73         C117   1.496       .  S
C73         C564   1.365   1_455  D
C74         C119   1.496       .  S
C74         C213   1.365       .  D
Zn75         O79   1.982   1_554  S
Zn75         O80   2.043       .  S
Zn75         O84   2.057       .  S
Zn75         O91   2.016       .  S
Zn76         O79   1.926       .  S
Zn76         O81   2.009       .  S
Zn76         O83   1.985       .  S
Zn76         O87   1.979       .  S
Zn77         O79   1.926       .  S
Zn77         O82   1.979       .  S
Zn77         O85   2.009       .  S
Zn77         O88   1.985       .  S
Zn78         O79   1.982   1_554  S
Zn78         O86   2.043       .  S
Zn78         O89   2.057       .  S
Zn78         O90   2.016       .  S
O80          C92   1.274       .  A
O81          C93   1.270       .  A
O82          C94   1.270   1_556  A
O83          C92   1.271   1_556  A
O84          C94   1.277       .  A
O85          C93   1.270       .  A
O86          C95   1.274       .  A
O87          C96   1.270   1_556  A
O88          C95   1.271   1_556  A
O89          C96   1.277       .  A
O90          C97   1.272       .  A
O91          C97   1.272       .  A
C93         C122   1.479       .  S
C95         C142   1.496       .  S
C97         C135   1.494       .  S
Zn98        O102   1.983       .  S
Zn98        O103   2.053       .  S
Zn98        O107   2.045       .  S
Zn98        O114   2.015       .  S
Zn99        O102   1.927       .  S
Zn99        O104   2.009       .  S
Zn99        O106   1.982       .  S
Zn99        O110   1.982       .  S
Zn100       O102   1.927       .  S
Zn100       O105   1.982       .  S
Zn100       O108   2.008       .  S
Zn100       O111   1.982       .  S
Zn101       O102   1.983       .  S
Zn101       O109   2.053       .  S
Zn101       O112   2.045       .  S
Zn101       O113   2.015       .  S
O103        C115   1.276       .  A
O104        C116   1.270       .  A
O105        C117   1.271       .  A
O106        C115   1.271       .  A
O107        C117   1.275       .  A
O108        C116   1.270       .  A
O109        C118   1.276       .  A
O110        C119   1.271       .  A
O111        C118   1.271       .  A
O112        C119   1.275       .  A
O113        C120   1.273       .  A
O114        C120   1.273       .  A
C116        C132   1.474       .  S
C118        C144   1.497       .  S
C120        C125   1.485       .  S
C121        C122   1.411       .  A
C121        C126   1.408       .  A
C121       Br128   1.934       .  S
C122        C123   1.411       .  A
C123        C124   1.408       .  A
C123       Br130   1.934       .  S
C124        C125   1.416       .  A
C124       Br129   1.935       .  S
C125        C126   1.416       .  A
C126       Br127   1.935       .  S
C131        C132   1.406       .  A
C131        C136   1.409       .  A
C131       Br138   1.934       .  S
C132        C133   1.406       .  A
C133        C134   1.408       .  A
C133       Br140   1.934       .  S
C134        C135   1.423       .  A
C134       Br139   1.936       .  S
C135        C136   1.423       .  A
C136       Br137   1.936       .  S
C141        C164   1.497       .  S
C141        C422   1.365   1_465  D
C142        C166   1.497       .  S
C142        C281   1.365       .  D
C143        C187   1.496   1_545  S
C143        C424   1.365   1_445  D
C144        C189   1.496       .  S
C144        C283   1.365       .  D
Zn145       O149   1.982   1_554  S
Zn145       O150   2.043       .  S
Zn145       O154   2.057       .  S
Zn145       O161   2.016       .  S
Zn146       O149   1.926       .  S
Zn146       O151   2.009       .  S
Zn146       O153   1.985       .  S
Zn146       O157   1.979       .  S
Zn147       O149   1.926       .  S
Zn147       O152   1.979       .  S
Zn147       O155   2.009       .  S
Zn147       O158   1.985       .  S
Zn148       O149   1.982   1_554  S
Zn148       O156   2.043       .  S
Zn148       O159   2.057       .  S
Zn148       O160   2.016       .  S
O150        C162   1.274       .  A
O151        C163   1.270       .  A
O152        C164   1.270   1_556  A
O153        C162   1.271   1_556  A
O154        C164   1.277       .  A
O155        C163   1.270       .  A
O156        C165   1.274       .  A
O157        C166   1.270   1_556  A
O158        C165   1.271   1_556  A
O159        C166   1.277       .  A
O160        C167   1.272       .  A
O161        C167   1.272       .  A
C163        C192   1.479       .  S
C167        C205   1.494       .  S
Zn168       O172   1.983       .  S
Zn168       O173   2.053       .  S
Zn168       O177   2.045       .  S
Zn168       O184   2.015       .  S
Zn169       O172   1.927       .  S
Zn169       O174   2.009       .  S
Zn169       O176   1.982       .  S
Zn169       O180   1.982       .  S
Zn170       O172   1.927       .  S
Zn170       O175   1.982       .  S
Zn170       O178   2.008       .  S
Zn170       O181   1.982       .  S
Zn171       O172   1.983       .  S
Zn171       O179   2.053       .  S
Zn171       O182   2.045       .  S
Zn171       O183   2.015       .  S
O173        C185   1.276       .  A
O174        C186   1.270       .  A
O175        C187   1.271       .  A
O176        C185   1.271       .  A
O177        C187   1.275       .  A
O178        C186   1.270       .  A
O179        C188   1.276       .  A
O180        C189   1.271       .  A
O181        C188   1.271       .  A
O182        C189   1.275       .  A
O183        C190   1.273       .  A
O184        C190   1.273       .  A
C186        C202   1.474       .  S
C190        C195   1.485       .  S
C191        C192   1.411       .  A
C191        C196   1.408       .  A
C191       Br198   1.934       .  S
C192        C193   1.411       .  A
C193        C194   1.408       .  A
C193       Br200   1.934       .  S
C194        C195   1.416       .  A
C194       Br199   1.935       .  S
C195        C196   1.416       .  A
C196       Br197   1.935       .  S
C201        C202   1.406       .  A
C201        C206   1.409       .  A
C201       Br208   1.934       .  S
C202        C203   1.406       .  A
C203        C204   1.408       .  A
C203       Br210   1.934       .  S
C204        C205   1.423       .  A
C204       Br209   1.936       .  S
C205        C206   1.423       .  A
C206       Br207   1.936       .  S
C211        C234   1.497       .  S
C211        C302   1.496       .  S
C212        C375   1.496   1_545  S
C212        C236   1.497       .  S
C212        C561   1.365   1_545  D
C213        C325   1.497       .  S
C213        C257   1.496       .  S
C214        C259   1.496   1_565  S
C214        C398   1.497       .  S
C214        C563   1.365   1_565  D
Zn215       O219   1.982   1_554  S
Zn215       O220   2.043       .  S
Zn215       O224   2.057       .  S
Zn215       O231   2.016       .  S
Zn216       O219   1.926       .  S
Zn216       O221   2.009       .  S
Zn216       O223   1.985       .  S
Zn216       O227   1.979       .  S
Zn217       O219   1.926       .  S
Zn217       O222   1.979       .  S
Zn217       O225   2.009       .  S
Zn217       O228   1.985       .  S
Zn218       O219   1.982   1_554  S
Zn218       O226   2.043       .  S
Zn218       O229   2.057       .  S
Zn218       O230   2.016       .  S
O220        C232   1.274       .  A
O221        C233   1.270       .  A
O222        C234   1.270   1_556  A
O223        C232   1.271   1_556  A
O224        C234   1.277       .  A
O225        C233   1.270       .  A
O226        C235   1.274       .  A
O227        C236   1.270   1_556  A
O228        C235   1.271   1_556  A
O229        C236   1.277       .  A
O230        C237   1.272       .  A
O231        C237   1.272       .  A
C232        C351   1.496   1_545  S
C233        C262   1.479       .  S
C235        C282   1.496       .  S
C237        C275   1.494       .  S
Zn238       O242   1.983       .  S
Zn238       O243   2.053       .  S
Zn238       O247   2.045       .  S
Zn238       O254   2.015       .  S
Zn239       O242   1.927       .  S
Zn239       O244   2.009       .  S
Zn239       O246   1.982       .  S
Zn239       O250   1.982       .  S
Zn240       O242   1.927       .  S
Zn240       O245   1.982       .  S
Zn240       O248   2.008       .  S
Zn240       O251   1.982       .  S
Zn241       O242   1.983       .  S
Zn241       O249   2.053       .  S
Zn241       O252   2.045       .  S
Zn241       O253   2.015       .  S
O243        C255   1.276       .  A
O244        C256   1.270       .  A
O245        C257   1.271       .  A
O246        C255   1.271       .  A
O247        C257   1.275       .  A
O248        C256   1.270       .  A
O249        C258   1.276       .  A
O250        C259   1.271       .  A
O251        C258   1.271       .  A
O252        C259   1.275       .  A
O253        C260   1.273       .  A
O254        C260   1.273       .  A
C255        C353   1.497       .  S
C256        C272   1.474       .  S
C258        C284   1.497       .  S
C260        C265   1.485       .  S
C261        C262   1.411       .  A
C261        C266   1.408       .  A
C261       Br268   1.934       .  S
C262        C263   1.411       .  A
C263        C264   1.408       .  A
C263       Br270   1.934       .  S
C264        C265   1.416       .  A
C264       Br269   1.935       .  S
C265        C266   1.416       .  A
C266       Br267   1.935       .  S
C271        C272   1.406       .  A
C271        C276   1.409       .  A
C271       Br278   1.934       .  S
C272        C273   1.406       .  A
C273        C274   1.408       .  A
C273       Br280   1.934       .  S
C274        C275   1.423       .  A
C274       Br279   1.936       .  S
C275        C276   1.423       .  A
C276       Br277   1.936       .  S
C281        C304   1.497       .  S
C281        C372   1.496       .  S
C282        C306   1.497       .  S
C282        C421   1.365       .  D
C283        C395   1.497       .  S
C283        C327   1.496       .  S
C284        C329   1.496       .  S
C284        C423   1.365       .  D
Zn285       O289   1.982   1_554  S
Zn285       O290   2.043       .  S
Zn285       O294   2.057       .  S
Zn285       O301   2.016       .  S
Zn286       O289   1.926       .  S
Zn286       O291   2.009       .  S
Zn286       O293   1.985       .  S
Zn286       O297   1.979       .  S
Zn287       O289   1.926       .  S
Zn287       O292   1.979       .  S
Zn287       O295   2.009       .  S
Zn287       O298   1.985       .  S
Zn288       O289   1.982   1_554  S
Zn288       O296   2.043       .  S
Zn288       O299   2.057       .  S
Zn288       O300   2.016       .  S
O290        C302   1.274       .  A
O291        C303   1.270       .  A
O292        C304   1.270   1_556  A
O293        C302   1.271   1_556  A
O294        C304   1.277       .  A
O295        C303   1.270       .  A
O296        C305   1.274       .  A
O297        C306   1.270   1_556  A
O298        C305   1.271   1_556  A
O299        C306   1.277       .  A
O300        C307   1.272       .  A
O301        C307   1.272       .  A
C303        C332   1.479       .  S
C305        C352   1.496       .  S
C307        C345   1.494       .  S
Zn308       O312   1.983       .  S
Zn308       O313   2.053       .  S
Zn308       O317   2.045       .  S
Zn308       O324   2.015       .  S
Zn309       O312   1.927       .  S
Zn309       O314   2.009       .  S
Zn309       O316   1.982       .  S
Zn309       O320   1.982       .  S
Zn310       O312   1.927       .  S
Zn310       O315   1.982       .  S
Zn310       O318   2.008       .  S
Zn310       O321   1.982       .  S
Zn311       O312   1.983       .  S
Zn311       O319   2.053       .  S
Zn311       O322   2.045       .  S
Zn311       O323   2.015       .  S
O313        C325   1.276       .  A
O314        C326   1.270       .  A
O315        C327   1.271       .  A
O316        C325   1.271       .  A
O317        C327   1.275       .  A
O318        C326   1.270       .  A
O319        C328   1.276       .  A
O320        C329   1.271       .  A
O321        C328   1.271       .  A
O322        C329   1.275       .  A
O323        C330   1.273       .  A
O324        C330   1.273       .  A
C326        C342   1.474       .  S
C328        C354   1.497       .  S
C330        C335   1.485       .  S
C331        C332   1.411       .  A
C331        C336   1.408       .  A
C331       Br338   1.934       .  S
C332        C333   1.411       .  A
C333        C334   1.408       .  A
C333       Br340   1.934       .  S
C334        C335   1.416       .  A
C334       Br339   1.935       .  S
C335        C336   1.416       .  A
C336       Br337   1.935       .  S
C341        C342   1.406       .  A
C341        C346   1.409       .  A
C341       Br348   1.934       .  S
C342        C343   1.406       .  A
C343        C344   1.408       .  A
C343       Br350   1.934       .  S
C344        C345   1.423       .  A
C344       Br349   1.936       .  S
C345        C346   1.423       .  A
C346       Br347   1.936       .  S
C351        C374   1.497       .  S
C352        C376   1.497       .  S
C352        C491   1.365       .  D
C353        C397   1.496   1_545  S
C354        C399   1.496       .  S
C354        C493   1.365       .  D
Zn355       O359   1.982   1_554  S
Zn355       O360   2.043       .  S
Zn355       O364   2.057       .  S
Zn355       O371   2.016       .  S
Zn356       O359   1.926       .  S
Zn356       O361   2.009       .  S
Zn356       O363   1.985       .  S
Zn356       O367   1.979       .  S
Zn357       O359   1.926       .  S
Zn357       O362   1.979       .  S
Zn357       O365   2.009       .  S
Zn357       O368   1.985       .  S
Zn358       O359   1.982   1_554  S
Zn358       O366   2.043       .  S
Zn358       O369   2.057       .  S
Zn358       O370   2.016       .  S
O360        C372   1.274       .  A
O361        C373   1.270       .  A
O362        C374   1.270   1_556  A
O363        C372   1.271   1_556  A
O364        C374   1.277       .  A
O365        C373   1.270       .  A
O366        C375   1.274       .  A
O367        C376   1.270   1_556  A
O368        C375   1.271   1_556  A
O369        C376   1.277       .  A
O370        C377   1.272       .  A
O371        C377   1.272       .  A
C373        C402   1.479       .  S
C377        C415   1.494       .  S
Zn378       O382   1.983       .  S
Zn378       O383   2.053       .  S
Zn378       O387   2.045       .  S
Zn378       O394   2.015       .  S
Zn379       O382   1.927       .  S
Zn379       O384   2.009       .  S
Zn379       O386   1.982       .  S
Zn379       O390   1.982       .  S
Zn380       O382   1.927       .  S
Zn380       O385   1.982       .  S
Zn380       O388   2.008       .  S
Zn380       O391   1.982       .  S
Zn381       O382   1.983       .  S
Zn381       O389   2.053       .  S
Zn381       O392   2.045       .  S
Zn381       O393   2.015       .  S
O383        C395   1.276       .  A
O384        C396   1.270       .  A
O385        C397   1.271       .  A
O386        C395   1.271       .  A
O387        C397   1.275       .  A
O388        C396   1.270       .  A
O389        C398   1.276       .  A
O390        C399   1.271       .  A
O391        C398   1.271       .  A
O392        C399   1.275       .  A
O393        C400   1.273       .  A
O394        C400   1.273       .  A
C396        C412   1.474       .  S
C400        C405   1.485       .  S
C401        C402   1.411       .  A
C401        C406   1.408       .  A
C401       Br408   1.934       .  S
C402        C403   1.411       .  A
C403        C404   1.408       .  A
C403       Br410   1.934       .  S
C404        C405   1.416       .  A
C404       Br409   1.935       .  S
C405        C406   1.416       .  A
C406       Br407   1.935       .  S
C411        C412   1.406       .  A
C411        C416   1.409       .  A
C411       Br418   1.934       .  S
C412        C413   1.406       .  A
C413        C414   1.408       .  A
C413       Br420   1.934       .  S
C414        C415   1.423       .  A
C414       Br419   1.936       .  S
C415        C416   1.423       .  A
C416       Br417   1.936       .  S
C421        C444   1.497       .  S
C421        C512   1.496       .  S
C422        C585   1.496   1_545  S
C422        C446   1.497       .  S
C423        C535   1.497       .  S
C423        C467   1.496       .  S
C424        C469   1.496   1_565  S
C424        C608   1.497       .  S
Zn425       O429   1.982   1_554  S
Zn425       O430   2.043       .  S
Zn425       O434   2.057       .  S
Zn425       O441   2.016       .  S
Zn426       O429   1.926       .  S
Zn426       O431   2.009       .  S
Zn426       O433   1.985       .  S
Zn426       O437   1.979       .  S
Zn427       O429   1.926       .  S
Zn427       O432   1.979       .  S
Zn427       O435   2.009       .  S
Zn427       O438   1.985       .  S
Zn428       O429   1.982   1_554  S
Zn428       O436   2.043       .  S
Zn428       O439   2.057       .  S
Zn428       O440   2.016       .  S
O430        C442   1.274       .  A
O431        C443   1.270       .  A
O432        C444   1.270   1_556  A
O433        C442   1.271   1_556  A
O434        C444   1.277       .  A
O435        C443   1.270       .  A
O436        C445   1.274       .  A
O437        C446   1.270   1_556  A
O438        C445   1.271   1_556  A
O439        C446   1.277       .  A
O440        C447   1.272       .  A
O441        C447   1.272       .  A
C442        C561   1.496   1_545  S
C443        C472   1.479       .  S
C445        C492   1.496       .  S
C447        C485   1.494       .  S
Zn448       O452   1.983       .  S
Zn448       O453   2.053       .  S
Zn448       O457   2.045       .  S
Zn448       O464   2.015       .  S
Zn449       O452   1.927       .  S
Zn449       O454   2.009       .  S
Zn449       O456   1.982       .  S
Zn449       O460   1.982       .  S
Zn450       O452   1.927       .  S
Zn450       O455   1.982       .  S
Zn450       O458   2.008       .  S
Zn450       O461   1.982       .  S
Zn451       O452   1.983       .  S
Zn451       O459   2.053       .  S
Zn451       O462   2.045       .  S
Zn451       O463   2.015       .  S
O453        C465   1.276       .  A
O454        C466   1.270       .  A
O455        C467   1.271       .  A
O456        C465   1.271       .  A
O457        C467   1.275       .  A
O458        C466   1.270       .  A
O459        C468   1.276       .  A
O460        C469   1.271       .  A
O461        C468   1.271       .  A
O462        C469   1.275       .  A
O463        C470   1.273       .  A
O464        C470   1.273       .  A
C465        C563   1.497       .  S
C466        C482   1.474       .  S
C468        C494   1.497       .  S
C470        C475   1.485       .  S
C471        C472   1.411       .  A
C471        C476   1.408       .  A
C471       Br478   1.934       .  S
C472        C473   1.411       .  A
C473        C474   1.408       .  A
C473       Br480   1.934       .  S
C474        C475   1.416       .  A
C474       Br479   1.935       .  S
C475        C476   1.416       .  A
C476       Br477   1.935       .  S
C481        C482   1.406       .  A
C481        C486   1.409       .  A
C481       Br488   1.934       .  S
C482        C483   1.406       .  A
C483        C484   1.408       .  A
C483       Br490   1.934       .  S
C484        C485   1.423       .  A
C484       Br489   1.936       .  S
C485        C486   1.423       .  A
C486       Br487   1.936       .  S
C491        C514   1.497       .  S
C491        C582   1.496       .  S
C492        C516   1.497       .  S
C493        C605   1.497       .  S
C493        C537   1.496       .  S
C494        C539   1.496       .  S
Zn495       O499   1.982   1_554  S
Zn495       O500   2.043       .  S
Zn495       O504   2.057       .  S
Zn495       O511   2.016       .  S
Zn496       O499   1.926       .  S
Zn496       O501   2.009       .  S
Zn496       O503   1.985       .  S
Zn496       O507   1.979       .  S
Zn497       O499   1.926       .  S
Zn497       O502   1.979       .  S
Zn497       O505   2.009       .  S
Zn497       O508   1.985       .  S
Zn498       O499   1.982   1_554  S
Zn498       O506   2.043       .  S
Zn498       O509   2.057       .  S
Zn498       O510   2.016       .  S
O500        C512   1.274       .  A
O501        C513   1.270       .  A
O502        C514   1.270   1_556  A
O503        C512   1.271   1_556  A
O504        C514   1.277       .  A
O505        C513   1.270       .  A
O506        C515   1.274       .  A
O507        C516   1.270   1_556  A
O508        C515   1.271   1_556  A
O509        C516   1.277       .  A
O510        C517   1.272       .  A
O511        C517   1.272       .  A
C513        C542   1.479       .  S
C515        C562   1.496       .  S
C517        C555   1.494       .  S
Zn518       O522   1.983       .  S
Zn518       O523   2.053       .  S
Zn518       O527   2.045       .  S
Zn518       O534   2.015       .  S
Zn519       O522   1.927       .  S
Zn519       O524   2.009       .  S
Zn519       O526   1.982       .  S
Zn519       O530   1.982       .  S
Zn520       O522   1.927       .  S
Zn520       O525   1.982       .  S
Zn520       O528   2.008       .  S
Zn520       O531   1.982       .  S
Zn521       O522   1.983       .  S
Zn521       O529   2.053       .  S
Zn521       O532   2.045       .  S
Zn521       O533   2.015       .  S
O523        C535   1.276       .  A
O524        C536   1.270       .  A
O525        C537   1.271       .  A
O526        C535   1.271       .  A
O527        C537   1.275       .  A
O528        C536   1.270       .  A
O529        C538   1.276       .  A
O530        C539   1.271       .  A
O531        C538   1.271       .  A
O532        C539   1.275       .  A
O533        C540   1.273       .  A
O534        C540   1.273       .  A
C536        C552   1.474       .  S
C538        C564   1.497       .  S
C540        C545   1.485       .  S
C541        C542   1.411       .  A
C541        C546   1.408       .  A
C541       Br548   1.934       .  S
C542        C543   1.411       .  A
C543        C544   1.408       .  A
C543       Br550   1.934       .  S
C544        C545   1.416       .  A
C544       Br549   1.935       .  S
C545        C546   1.416       .  A
C546       Br547   1.935       .  S
C551        C552   1.406       .  A
C551        C556   1.409       .  A
C551       Br558   1.934       .  S
C552        C553   1.406       .  A
C553        C554   1.408       .  A
C553       Br560   1.934       .  S
C554        C555   1.423       .  A
C554       Br559   1.936       .  S
C555        C556   1.423       .  A
C556       Br557   1.936       .  S
C561        C584   1.497       .  S
C562        C586   1.497       .  S
C563        C607   1.496   1_545  S
C564        C609   1.496       .  S
Zn565       O569   1.982   1_554  S
Zn565       O570   2.043       .  S
Zn565       O574   2.057       .  S
Zn565       O581   2.016       .  S
Zn566       O569   1.926       .  S
Zn566       O571   2.009       .  S
Zn566       O573   1.985       .  S
Zn566       O577   1.979       .  S
Zn567       O569   1.926       .  S
Zn567       O572   1.979       .  S
Zn567       O575   2.009       .  S
Zn567       O578   1.985       .  S
Zn568       O569   1.982   1_554  S
Zn568       O576   2.043       .  S
Zn568       O579   2.057       .  S
Zn568       O580   2.016       .  S
O570        C582   1.274       .  A
O571        C583   1.270       .  A
O572        C584   1.270   1_556  A
O573        C582   1.271   1_556  A
O574        C584   1.277       .  A
O575        C583   1.270       .  A
O576        C585   1.274       .  A
O577        C586   1.270   1_556  A
O578        C585   1.271   1_556  A
O579        C586   1.277       .  A
O580        C587   1.272       .  A
O581        C587   1.272       .  A
C583        C612   1.479       .  S
C587        C625   1.494       .  S
Zn588       O592   1.983       .  S
Zn588       O593   2.053       .  S
Zn588       O597   2.045       .  S
Zn588       O604   2.015       .  S
Zn589       O592   1.927       .  S
Zn589       O594   2.009       .  S
Zn589       O596   1.982       .  S
Zn589       O600   1.982       .  S
Zn590       O592   1.927       .  S
Zn590       O595   1.982       .  S
Zn590       O598   2.008       .  S
Zn590       O601   1.982       .  S
Zn591       O592   1.983       .  S
Zn591       O599   2.053       .  S
Zn591       O602   2.045       .  S
Zn591       O603   2.015       .  S
O593        C605   1.276       .  A
O594        C606   1.270       .  A
O595        C607   1.271       .  A
O596        C605   1.271       .  A
O597        C607   1.275       .  A
O598        C606   1.270       .  A
O599        C608   1.276       .  A
O600        C609   1.271       .  A
O601        C608   1.271       .  A
O602        C609   1.275       .  A
O603        C610   1.273       .  A
O604        C610   1.273       .  A
C606        C622   1.474       .  S
C610        C615   1.485       .  S
C611        C612   1.411       .  A
C611        C616   1.408       .  A
C611       Br618   1.934       .  S
C612        C613   1.411       .  A
C613        C614   1.408       .  A
C613       Br620   1.934       .  S
C614        C615   1.416       .  A
C614       Br619   1.935       .  S
C615        C616   1.416       .  A
C616       Br617   1.935       .  S
C621        C622   1.406       .  A
C621        C626   1.409       .  A
C621       Br628   1.934       .  S
C622        C623   1.406       .  A
C623        C624   1.408       .  A
C623       Br630   1.934       .  S
C624        C625   1.423       .  A
C624       Br629   1.936       .  S
C625        C626   1.423       .  A
C626       Br627   1.936       .  S
