geometry optimzed in LAMMPS
_audit_creation_date              2020-11-30 
_audit_creation_method            'lammps2cif' 
_symmetry_space_group_name_H-M    'P1' 
_symmetry_Int_Tables_number       1 
_symmetry_cell_setting            triclinic 
loop_ 
_symmetry_equiv_pos_as_xyz 
  x,y,z 
_cell_length_a                    39.72981101 
_cell_length_b                    39.70683079548169 
_cell_length_c                    39.75869476963415 
_cell_angle_alpha                 90.13871087431383 
_cell_angle_beta                  90.08585106515046 
_cell_angle_gamma                 89.88989604215004 
loop_ 
_atom_site_label 
_atom_site_type_symbol 
_atom_site_fract_x 
_atom_site_fract_y 
_atom_site_fract_z 
_atom_site_charge 
N1          N  0.99365277  0.24878266  0.19834527    -0.35400
N2          N  0.99493912  0.30049898  0.24899824    -0.55900
N3          N  0.00119382  0.24954046  0.30024401    -0.35400
N4          N  0.00158903  0.19766519  0.24989064    -0.55900
C5          C  0.00038358  0.27636804  0.17966896     0.28200
C6          C  0.00333780  0.22170367  0.18016950     0.28200
C7          C  0.00975531  0.27761506  0.31742425     0.28200
C8          C  0.01295512  0.22299035  0.31790746     0.28200
C9          C  0.98471940  0.31872866  0.22226935     0.36800
C10         C  0.98808311  0.31910024  0.27656939     0.36800
C11         C  0.99367119  0.17810276  0.22330549     0.36800
C12         C  0.99744062  0.17846093  0.27751046     0.36800
C13         C  0.01476279  0.26666855  0.14936794    -0.20700
C14         C  0.01643080  0.23206316  0.14960895    -0.20700
C15         C  0.02760343  0.26885566  0.34613735    -0.20700
C16         C  0.02951344  0.23424508  0.34649639    -0.20700
C17         C  0.97083536  0.34898647  0.23285477    -0.21700
C18         C  0.97288201  0.34918969  0.26740243    -0.21700
C19         C  0.98436200  0.14624400  0.23397361    -0.21700
C20         C  0.98660585  0.14651346  0.26848405    -0.21700
C21         C  0.99169500  0.30971880  0.18865411    -0.17100
C22         C  0.99819603  0.18792892  0.18962227    -0.17100
C23         C  0.00611032  0.18899904  0.31027554    -0.17100
C24         C  0.99886752  0.31045427  0.30926590    -0.17100
H25         H  0.02279052  0.28276629  0.12898828     0.15900
H26         H  0.02590264  0.21630416  0.12947322     0.15900
H27         H  0.03745668  0.28560366  0.36526347     0.15900
H28         H  0.04111042  0.21905932  0.36590837     0.15900
H29         H  0.96111876  0.36911206  0.21728203     0.14100
H30         H  0.96498862  0.36952186  0.28378027     0.14100
H31         H  0.97732487  0.12492514  0.21848927     0.14100
H32         H  0.98151935  0.12544769  0.28491674     0.14100
H33         H  0.97958166  0.24814713  0.22041400     0.27400
H34         H  0.98425164  0.24838099  0.28026764     0.27400
O35         O  0.50107821  0.09574436  0.05640799    -0.78900
O36         O  0.49743311  0.40280033  0.05428003    -0.80400
O37         O  0.44531479  0.00036796  0.09601615    -0.77500
O38         O  0.05566203  0.99703433  0.09724763    -0.75800
O39         O  0.09673003  0.99789819  0.05684599    -0.77600
O40         O  0.40496932  0.50133027  0.05586049    -0.78600
O41         O  0.49972781  0.44309780  0.09547059    -0.79900
O42         O  0.50234768  0.05464386  0.09676824    -0.80200
Eu43       Eu  0.50078995  0.99935981  0.06871832     2.39200
O44         O  0.03391941  0.46434766  0.03457900    -0.86100
O45         O  0.46727888  0.03469823  0.03494889    -0.91300
C46         C  0.50164934  0.08566723  0.08714059     1.03400
C47         C  0.49816276  0.41221152  0.08538711     1.03200
C48         C  0.41437201  0.00174481  0.08607853     1.03200
C49         C  0.08669231  0.99704895  0.08767997     1.01000
H50         H  0.45106288  0.45201573  0.04766732     0.30800
O51         O  0.46538630  0.46599529  0.03386780    -1.00100
H52         H  0.04993332  0.04701772  0.05021932     0.30800
O53         O  0.03565130  0.03343170  0.03577455    -1.02600
O54         O  0.49869716  0.40385343  0.44330115    -0.79900
O55         O  0.50253042  0.09733722  0.44538183    -0.79400
O56         O  0.40258240  0.44638899  0.49911816    -0.77800
O57         O  0.09427575  0.44275958  0.50221142    -0.81200
O58         O  0.09590706  0.05462049  0.50134405    -0.79000
O59         O  0.40441707  0.05744973  0.50011929    -0.77700
O60         O  0.44607130  0.50006711  0.40192685    -0.79200
O61         O  0.05665958  0.49901151  0.40437232    -0.81100
O62         O  0.40497071  0.50224182  0.44219157    -0.77900
O63         O  0.09680354  0.50056518  0.44577724    -0.80500
O64         O  0.44265371  0.40485575  0.49716155    -0.76300
O65         O  0.44561433  0.09773031  0.49826806    -0.76300
O66         O  0.05597535  0.09619500  0.49904919    -0.75900
O67         O  0.05297221  0.40260703  0.49987603    -0.79400
O68         O  0.50092543  0.44444789  0.40265878    -0.78900
O69         O  0.50491095  0.05702907  0.40412791    -0.77200
Eu70       Eu  0.49845014  0.43154341  0.49872545     2.39800
Eu71       Eu  0.50040096  0.06919342  0.50026470     2.39600
Eu72       Eu  0.43117640  0.50115896  0.49824150     2.38400
Eu73       Eu  0.06784804  0.49909541  0.50018056     2.39900
Eu74       Eu  0.50069883  0.49968823  0.43071873     2.39800
O75         O  0.03470846  0.03447828  0.46631367    -0.91600
O76         O  0.46509272  0.46621655  0.46418207    -0.90500
C77         C  0.49986609  0.41344858  0.41231110     1.03600
C78         C  0.50458908  0.08793553  0.41435617     1.02300
C79         C  0.41185583  0.41524021  0.49827666     1.01700
C80         C  0.08402522  0.41187511  0.50151248     1.03700
C81         C  0.08677195  0.08578484  0.49988380     1.02600
C82         C  0.41460969  0.08824678  0.49929139     1.01500
C83         C  0.41502787  0.50161127  0.41131597     1.01500
C84         C  0.08747097  0.49999023  0.41470491     1.04100
H85         H  0.45308730  0.05043684  0.45029751     0.31500
O86         O  0.46670903  0.03583435  0.46464031    -1.03800
H87         H  0.04825724  0.45070261  0.45161405     0.33500
O88         O  0.03408455  0.46493668  0.46532422    -1.06300
N89         N  0.24944831  0.99637471  0.19863939    -0.35400
N90         N  0.30146892  0.00324679  0.24837854    -0.55900
N91         N  0.25100751  0.00244554  0.30099449    -0.35400
N92         N  0.19873390  0.99299802  0.25121914    -0.55900
C93         C  0.27707725  0.98991132  0.17984540     0.28200
C94         C  0.22250119  0.98492846  0.18134645     0.28200
C95         C  0.27947458  0.99617708  0.31856533     0.28200
C96         C  0.22489714  0.99220604  0.32016037     0.28200
C97         C  0.31925574  0.01094615  0.22056620     0.36800
C98         C  0.32027802  0.01304543  0.27490877     0.36800
C99         C  0.17888319  0.99760935  0.22399680     0.36800
C100        C  0.17983846  0.00098537  0.27833897     0.36800
C101        C  0.26756304  0.97370818  0.15036779    -0.20700
C102        C  0.23299641  0.97083025  0.15119990    -0.20700
C103        C  0.27139467  0.98153673  0.34914281    -0.20700
C104        C  0.23685824  0.97909854  0.35018015    -0.20700
C105        C  0.34936389  0.02623008  0.22947657    -0.21700
C106        C  0.35010672  0.02733364  0.26401613    -0.21700
C107        C  0.14714725  0.00827935  0.23381011    -0.21700
C108        C  0.14782460  0.01066620  0.26829872    -0.21700
C109        C  0.31008216  0.00082445  0.18772222    -0.17100
C110        C  0.18869669  0.99052892  0.19062151    -0.17100
C111        C  0.19060915  0.99686880  0.31198273    -0.17100
C112        C  0.31219115  0.00574610  0.30860103    -0.17100
H113        H  0.28371201  0.96559049  0.12999449     0.15900
H114        H  0.21731355  0.96020914  0.13159400     0.15900
H115        H  0.28855614  0.97385991  0.36886498     0.15900
H116        H  0.22220604  0.96916003  0.37081185     0.15900
H117        H  0.36914046  0.03479988  0.21289895     0.14100
H118        H  0.37052461  0.03685076  0.27935763     0.14100
H119        H  0.12574606  0.01366989  0.21781588     0.14100
H120        H  0.12703111  0.01829273  0.28415043     0.14100
H121        H  0.24845022  0.01186262  0.21975936     0.27400
H122        H  0.24923247  0.01665246  0.27907824     0.27400
N123        N  0.25150409  0.19860071  0.50205502    -0.35400
N124        N  0.19829520  0.24855695  0.50095742    -0.55900
N125        N  0.24836905  0.30167801  0.50389281    -0.35400
N126        N  0.30157554  0.25175965  0.50112253    -0.55900
C127        C  0.22473178  0.17911470  0.49417749     0.28200
C128        C  0.27948126  0.18085867  0.49425143     0.28200
C129        C  0.22031626  0.31943990  0.49631800     0.28200
C130        C  0.27507139  0.32120680  0.49610279     0.28200
C131        C  0.18015329  0.22068187  0.50778792     0.36800
C132        C  0.17843468  0.27507337  0.50877996     0.36800
C133        C  0.32191733  0.22505717  0.50660262     0.36800
C134        C  0.32012711  0.27944938  0.50770183     0.36800
C135        C  0.23585934  0.14854377  0.48135006    -0.20700
C136        C  0.27046226  0.14957763  0.48157894    -0.20700
C137        C  0.22926644  0.35067691  0.48364561    -0.20700
C138        C  0.26387597  0.35179666  0.48351689    -0.20700
C139        C  0.14870929  0.22953196  0.52006978    -0.21700
C140        C  0.14759438  0.26405288  0.52061750    -0.21700
C141        C  0.35359135  0.23575530  0.51654909    -0.21700
C142        C  0.35241376  0.27029216  0.51741246    -0.21700
C143        C  0.19070897  0.18749230  0.50051774    -0.17100
C144        C  0.31285928  0.19130914  0.50043554    -0.17100
C145        C  0.30914417  0.31278153  0.50198680    -0.17100
C146        C  0.18699535  0.30900330  0.50294198    -0.17100
H147        H  0.22066618  0.12747709  0.47312177     0.15900
H148        H  0.28708976  0.12947725  0.47358340     0.15900
H149        H  0.21260019  0.37073346  0.47568171     0.15900
H150        H  0.27904646  0.37286608  0.47538839     0.15900
H151        H  0.12855673  0.21286833  0.52756050     0.14100
H152        H  0.12642467  0.27928996  0.52856679     0.14100
H153        H  0.37534384  0.22031165  0.52221281     0.14100
H154        H  0.37312322  0.28677044  0.52386406     0.14100
H155        H  0.25081245  0.22096859  0.51566662     0.27400
H156        H  0.24917381  0.27925183  0.51732119     0.27400
C157        C  0.36122355  0.38940227  0.02399446     0.24800
C158        C  0.38519257  0.38954764  0.49892322    -0.23300
C159        C  0.38509522  0.36333690  0.47518987     0.19700
C160        C  0.35994442  0.33887488  0.47573060     0.24800
C161        C  0.33482580  0.33984464  0.50051842    -0.23200
C162        C  0.33629903  0.36455115  0.02358578     0.19700
F163        F  0.31409071  0.36275287  0.04944208    -0.13200
F164        F  0.36246133  0.41162031  0.04999596    -0.15500
F165        F  0.36007914  0.31411345  0.45209988    -0.15500
F166        F  0.40893651  0.36187273  0.45097184    -0.13200
C167        C  0.36886860  0.11926624  0.02923388     0.24800
C168        C  0.38881829  0.11465822  0.49956432    -0.23300
C169        C  0.38554792  0.13658603  0.47212295     0.19700
C170        C  0.36107572  0.16190742  0.47248364     0.24800
C171        C  0.33959360  0.16536168  0.50028321    -0.23200
C172        C  0.34393864  0.14413595  0.02862393     0.19700
F173        F  0.32283942  0.14752294  0.05526028    -0.13200
F174        F  0.37192741  0.09927996  0.05668422    -0.15500
F175        F  0.35777617  0.18255859  0.44550491    -0.15500
F176        F  0.40520652  0.13259812  0.44454341    -0.13200
C177        C  0.10827285  0.35797542  0.47966192     0.24800
C178        C  0.10972362  0.38506017  0.50249630    -0.23300
C179        C  0.13590554  0.38630781  0.52627079     0.19700
C180        C  0.16058539  0.36117319  0.52684608     0.24800
C181        C  0.15983802  0.33479845  0.50323462    -0.23200
C182        C  0.13340838  0.33327255  0.47973496     0.19700
F183        F  0.13229686  0.30811834  0.45654921    -0.13200
F184        F  0.08309448  0.35601617  0.45660145    -0.15500
F185        F  0.18785678  0.36444711  0.05069468    -0.15500
F186        F  0.13942782  0.41314734  0.04903800    -0.13200
C187        C  0.11175065  0.13894247  0.47725504     0.24800
C188        C  0.11367293  0.11134853  0.49926695    -0.23300
C189        C  0.14170338  0.10820864  0.52064493     0.19700
C190        C  0.16679943  0.13277836  0.52095860     0.24800
C191        C  0.16478961  0.16050039  0.49916880    -0.23200
C192        C  0.13734146  0.16307457  0.47689460     0.19700
F193        F  0.13524958  0.18919111  0.45499497    -0.13200
F194        F  0.08547774  0.14215790  0.45560469    -0.15500
F195        F  0.19615613  0.12735335  0.04676414    -0.15500
F196        F  0.14927207  0.07767936  0.04296343    -0.13200
C197        C  0.36208754  0.02717552  0.38708856     0.24800
C198        C  0.38899662  0.50325391  0.38482190    -0.23300
C199        C  0.39264204  0.48487649  0.35473720     0.19700
C200        C  0.36726893  0.48553754  0.33036175     0.24800
C201        C  0.33937384  0.00619394  0.33426644    -0.23200
C202        C  0.33758589  0.02831788  0.36183181     0.19700
F203        F  0.31198256  0.05089809  0.36427962    -0.13200
F204        F  0.35956311  0.04857810  0.41366599    -0.15500
F205        F  0.37059943  0.46613822  0.30238053    -0.15500
F206        F  0.42032757  0.46552523  0.34927623    -0.13200
C207        C  0.11396424  0.47560729  0.36348381     0.24800
C208        C  0.11404226  0.50007792  0.38898670    -0.23300
C209        C  0.14332841  0.01918990  0.39225962     0.19700
C210        C  0.16773031  0.01904337  0.36686790     0.24800
C211        C  0.16511978  0.99656842  0.33951361    -0.23200
C212        C  0.13902937  0.47531943  0.33897633     0.19700
F213        F  0.13902550  0.45068798  0.31521446    -0.13200
F214        F  0.09010810  0.45136908  0.36290985    -0.15500
F215        F  0.19359550  0.04128366  0.36865014    -0.15500
F216        F  0.14639968  0.04118072  0.41829350    -0.13200
C217        C  0.11797390  0.46738275  0.13228774     0.24800
C218        C  0.11269461  0.99544419  0.11395745    -0.23300
C219        C  0.13272284  0.02365425  0.12120999     0.19700
C220        C  0.15793834  0.02163247  0.14571331     0.24800
C221        C  0.16288829  0.99166087  0.16372497    -0.23200
C222        C  0.14249342  0.46706311  0.15758520     0.19700
F223        F  0.14793004  0.43847894  0.17547066    -0.13200
F224        F  0.09988465  0.43910428  0.12598894    -0.15500
F225        F  0.17735778  0.04899261  0.15226529    -0.15500
F226        F  0.12732064  0.05330283  0.10516227    -0.13200
C227        C  0.39105625  0.48264601  0.14322911     0.24800
C228        C  0.38775855  0.00164381  0.11203422    -0.23300
C229        C  0.35746348  0.01939235  0.10690001     0.19700
C230        C  0.33230653  0.01930294  0.13145754     0.24800
C231        C  0.33643807  0.00046796  0.16107687    -0.23200
C232        C  0.36538971  0.48323507  0.16730648     0.19700
F233        F  0.36917580  0.46496625  0.19589860    -0.13200
F234        F  0.41898786  0.46383855  0.14925676    -0.15500
F235        F  0.30409125  0.03801659  0.12652344    -0.15500
F236        F  0.35248680  0.03753878  0.07844491    -0.13200
C237        C  0.02906745  0.11157245  0.36115260     0.24800
C238        C  0.50633637  0.11456931  0.38859988    -0.23300
C239        C  0.48573643  0.14329257  0.39116081     0.19700
C240        C  0.48534680  0.16721345  0.36549516     0.24800
C241        C  0.50686854  0.16376442  0.33769656    -0.23200
C242        C  0.02991871  0.13651890  0.33638198     0.19700
F243        F  0.05265624  0.13410843  0.31102341    -0.13200
F244        F  0.05052082  0.08500823  0.35887762    -0.15500
F245        F  0.46356960  0.19355561  0.36749392    -0.15500
F246        F  0.46532810  0.14781288  0.41810574    -0.13200
C247        C  0.48167129  0.35703131  0.39054823     0.24800
C248        C  0.49992404  0.38698134  0.38597633    -0.23300
C249        C  0.01813866  0.39130842  0.35618641     0.19700
C250        C  0.01862447  0.36608420  0.33165947     0.24800
C251        C  0.49935441  0.33675968  0.33564105    -0.23200
C252        C  0.48086402  0.33245627  0.36538893     0.19700
F253        F  0.46191596  0.30441972  0.37001810    -0.13200
F254        F  0.46396751  0.35177741  0.41910194    -0.15500
F255        F  0.03801839  0.37015551  0.30386548    -0.15500
F256        F  0.03597509  0.41976306  0.35076581    -0.13200
C257        C  0.51556781  0.38890758  0.14122043     0.24800
C258        C  0.49658117  0.38580645  0.11148745    -0.23300
C259        C  0.97562756  0.35777883  0.10757729     0.19700
C260        C  0.97309945  0.33358696  0.13298761     0.24800
C261        C  0.49235370  0.33636235  0.16221188    -0.23200
C262        C  0.51389629  0.36415543  0.16605689     0.19700
F263        F  0.03391897  0.36721240  0.19399435    -0.13200
F264        F  0.03648655  0.41572388  0.14621064    -0.15500
F265        F  0.45126304  0.30734508  0.12871826    -0.15500
F266        F  0.45615594  0.35436524  0.07928934    -0.13200
C267        C  0.47524903  0.13601287  0.11309696     0.24800
C268        C  0.50104712  0.11178929  0.11312564    -0.23300
C269        C  0.02646786  0.11335574  0.13760870     0.19700
C270        C  0.02562397  0.13825289  0.16243965     0.24800
C271        C  0.49925298  0.16168816  0.16302284    -0.23200
C272        C  0.47421750  0.16071887  0.13808091     0.19700
F273        F  0.44882302  0.18366501  0.13804895    -0.13200
F274        F  0.45085327  0.13538832  0.08912512    -0.15500
F275        F  0.05093514  0.14001562  0.18535529    -0.15500
F276        F  0.05274208  0.09145587  0.13659574    -0.13200
N277        N  0.99250523  0.24867711  0.69916800    -0.35400
N278        N  0.99484302  0.30119341  0.74923042    -0.55900
N279        N  0.00246099  0.25094092  0.80119095    -0.35400
N280        N  0.00275717  0.19813917  0.75142465    -0.55900
C281        C  0.99963863  0.27597990  0.68011355     0.28200
C282        C  0.00150671  0.22112821  0.68127430     0.28200
C283        C  0.01044354  0.27947203  0.81790472     0.28200
C284        C  0.01490907  0.22487097  0.81915017     0.28200
C285        C  0.98421987  0.31889138  0.72225334     0.36800
C286        C  0.98737221  0.31986080  0.77664679     0.36800
C287        C  0.99280884  0.17842851  0.72551126     0.36800
C288        C  0.99898132  0.17962188  0.77967742     0.36800
C289        C  0.01384146  0.26557433  0.64995895    -0.20700
C290        C  0.01470403  0.23090614  0.65056472    -0.20700
C291        C  0.02885631  0.27150929  0.84651641    -0.20700
C292        C  0.03150841  0.23692336  0.84739262    -0.20700
C293        C  0.96944288  0.34883038  0.73255614    -0.21700
C294        C  0.97129769  0.34938350  0.76709884    -0.21700
C295        C  0.98266147  0.14724547  0.73732581    -0.21700
C296        C  0.98658879  0.14800027  0.77170153    -0.21700
C297        C  0.99132700  0.30966175  0.68863810    -0.17100
C298        C  0.99579315  0.18748937  0.69126609    -0.17100
C299        C  0.00830936  0.19063691  0.81222452    -0.17100
C300        C  0.99834594  0.31189686  0.80953578    -0.17100
H301        H  0.02227371  0.28123660  0.62940926     0.15900
H302        H  0.02387200  0.21473195  0.63061964     0.15900
H303        H  0.03849784  0.28874036  0.86532052     0.15900
H304        H  0.04351562  0.22227595  0.86696859     0.15900
H305        H  0.95913183  0.36852168  0.71681197     0.14100
H306        H  0.96267379  0.36963214  0.78320538     0.14100
H307        H  0.97369979  0.12607020  0.72267735     0.14100
H308        H  0.98105256  0.12759043  0.78879848     0.14100
H309        H  0.97867341  0.24850160  0.72140851     0.27400
H310        H  0.98535844  0.24913981  0.78139734     0.27400
O311        O  0.49672105  0.09609286  0.55619073    -0.78900
O312        O  0.49592772  0.40376260  0.55415733    -0.80400
O313        O  0.44212717  0.99862231  0.59367682    -0.77500
O314        O  0.05317020  0.99551102  0.59636057    -0.75800
O315        O  0.09455690  0.99734162  0.55636089    -0.77600
O316        O  0.40236397  0.50089677  0.55289265    -0.78600
O317        O  0.49763355  0.44440386  0.59501904    -0.79900
O318        O  0.49699487  0.05461561  0.59618977    -0.80200
Eu319      Eu  0.49830707  0.99969888  0.56765773     2.39200
O320        O  0.03282870  0.46520079  0.53355845    -0.86100
O321        O  0.46537278  0.03489264  0.53319029    -0.91300
C322        C  0.49611145  0.08576713  0.58699285     1.03400
C323        C  0.49607794  0.41336092  0.58525532     1.03200
C324        C  0.41127578  0.99958033  0.58339174     1.03200
C325        C  0.08432086  0.99538749  0.58704440     1.01000
H326        H  0.45040608  0.45267609  0.54629024     0.30800
O327        O  0.46480381  0.46655849  0.53248011    -1.00100
H328        H  0.04764755  0.04815545  0.54968246     0.30800
O329        O  0.03368377  0.03442491  0.53506659    -1.02600
O330        O  0.49874862  0.40453499  0.94395887    -0.79900
O331        O  0.50513482  0.09840171  0.94785061    -0.79400
O332        O  0.40289626  0.44712684  0.00045594    -0.77800
O333        O  0.09501743  0.44221496  0.00334843    -0.81200
O334        O  0.09870331  0.05285177  0.00364331    -0.79000
O335        O  0.40583883  0.05809597  0.00247255    -0.77700
O336        O  0.44564357  0.50092623  0.90418766    -0.79200
O337        O  0.05636010  0.49835478  0.90512714    -0.81100
O338        O  0.40456081  0.50238680  0.94457491    -0.77900
O339        O  0.09683507  0.49917877  0.94623836    -0.80500
O340        O  0.44292826  0.40554402  0.99778674    -0.76300
O341        O  0.44766619  0.09773060  0.00113574    -0.76300
O342        O  0.05859326  0.09425943  0.00239897    -0.75900
O343        O  0.05366042  0.40217977  0.00087553    -0.79400
O344        O  0.49969554  0.44571149  0.90388011    -0.78900
O345        O  0.50567265  0.05849179  0.90623578    -0.77200
Eu346      Eu  0.49907301  0.43148916  0.99952897     2.39800
Eu347      Eu  0.50225068  0.06847754  0.00148763     2.39600
Eu348      Eu  0.43191797  0.50153342  0.00022484     2.38400
Eu349      Eu  0.06867096  0.49846296  0.00120750     2.39900
Eu350      Eu  0.50093294  0.50063819  0.93212474     2.39800
O351        O  0.03601255  0.03406389  0.96738174    -0.91600
O352        O  0.46585253  0.46707637  0.96587055    -0.90500
C353        C  0.49897629  0.41459612  0.91312023     1.03600
C354        C  0.50654043  0.08937589  0.91672142     1.02300
C355        C  0.41216289  0.41602027  0.99895549     1.01700
C356        C  0.08475969  0.41135375  0.00273127     1.03700
C357        C  0.08945519  0.08403008  0.00338295     1.02600
C358        C  0.41648726  0.08876097  0.00203318     1.01500
C359        C  0.41456430  0.50167971  0.91366218     1.01500
C360        C  0.08727356  0.49863057  0.91520321     1.04100
H361        H  0.45378077  0.05108386  0.95238349     0.31500
O362        O  0.46729155  0.03619933  0.96631324    -1.03800
H363        H  0.04825727  0.45087581  0.95225157     0.33500
O364        O  0.03433169  0.46513150  0.96617204    -1.06300
N365        N  0.24817760  0.99805682  0.69814834    -0.35400
N366        N  0.30093178  0.00354998  0.74872237    -0.55900
N367        N  0.25026671  0.00351392  0.80092786    -0.35400
N368        N  0.19756180  0.99420360  0.75045494    -0.55900
C369        C  0.27587571  0.99128516  0.67954456     0.28200
C370        C  0.22122078  0.98692393  0.68049545     0.28200
C371        C  0.27850720  0.99783411  0.81922151     0.28200
C372        C  0.22372502  0.99431976  0.82009960     0.28200
C373        C  0.31898396  0.01037031  0.72075539     0.36800
C374        C  0.32023265  0.01252565  0.77533482     0.36800
C375        C  0.17734855  0.99787774  0.72330331     0.36800
C376        C  0.17852906  0.00173233  0.77760074     0.36800
C377        C  0.26632064  0.97545720  0.64985190    -0.20700
C378        C  0.23178849  0.97304449  0.65031857    -0.20700
C379        C  0.26972906  0.98456356  0.85024790    -0.20700
C380        C  0.23515829  0.98253664  0.85086451    -0.20700
C381        C  0.34981578  0.02414138  0.72965564    -0.21700
C382        C  0.35065132  0.02538252  0.76422497    -0.21700
C383        C  0.14529955  0.00738784  0.73319546    -0.21700
C384        C  0.14609825  0.01006511  0.76761842    -0.21700
C385        C  0.30919248  0.00117128  0.68766902    -0.17100
C386        C  0.18723681  0.99140030  0.68984126    -0.17100
C387        C  0.18944389  0.99860365  0.81132474    -0.17100
C388        C  0.31170455  0.00639500  0.80937550    -0.17100
H389        H  0.28248183  0.96694455  0.62965205     0.15900
H390        H  0.21619537  0.96244422  0.63062851     0.15900
H391        H  0.28643286  0.97744498  0.87055636     0.15900
H392        H  0.22012713  0.97363275  0.87169890     0.15900
H393        H  0.36992432  0.03180911  0.71303365     0.14100
H394        H  0.37148518  0.03419743  0.77942184     0.14100
H395        H  0.12364742  0.01197708  0.71728852     0.14100
H396        H  0.12509542  0.01707314  0.78347510     0.14100
H397        H  0.24736225  0.01306622  0.71961147     0.27400
H398        H  0.24882886  0.01662797  0.77834669     0.27400
N399        N  0.25307960  0.19877130  0.00538159    -0.35400
N400        N  0.19984976  0.24841860  0.00610475    -0.55900
N401        N  0.24953548  0.30167270  0.00255755    -0.35400
N402        N  0.30283098  0.25216729  0.99852358    -0.55900
C403        C  0.22591162  0.17922406  0.99898776     0.28200
C404        C  0.28062702  0.18118645  0.99584628     0.28200
C405        C  0.22094443  0.31902825  0.99616302     0.28200
C406        C  0.27561784  0.32120706  0.99295183     0.28200
C407        C  0.18240247  0.22078257  0.01526145     0.36800
C408        C  0.18046868  0.27521040  0.01413322     0.36800
C409        C  0.32351955  0.22577028  0.00422873     0.36800
C410        C  0.32157562  0.28014198  0.00316289     0.36800
C411        C  0.23641115  0.14887371  0.98510791    -0.20700
C412        C  0.27100487  0.15000419  0.98343380    -0.20700
C413        C  0.22894904  0.34991287  0.98201723    -0.20700
C414        C  0.26353934  0.35136579  0.98018441    -0.20700
C415        C  0.15193845  0.23005632  0.02953521    -0.21700
C416        C  0.15066581  0.26461815  0.02871153    -0.21700
C417        C  0.35560528  0.23695316  0.01209920    -0.21700
C418        C  0.35436002  0.27146510  0.01149908    -0.21700
C419        C  0.19224878  0.18748262  0.00744898    -0.17100
C420        C  0.31426550  0.19174103  0.00028309    -0.17100
C421        C  0.30995153  0.31331148  0.99784800    -0.17100
C422        C  0.18821831  0.30879018  0.00563436    -0.17100
H423        H  0.22085918  0.12788582  0.97738034     0.15900
H424        H  0.28725147  0.13011549  0.97422011     0.15900
H425        H  0.21171838  0.36968274  0.97454833     0.15900
H426        H  0.27814660  0.37238711  0.97097055     0.15900
H427        H  0.13237963  0.21361693  0.03886090     0.14100
H428        H  0.12996291  0.28014405  0.03730994     0.14100
H429        H  0.37765241  0.22183703  0.01748490     0.14100
H430        H  0.37527696  0.28820905  0.01638225     0.14100
H431        H  0.25322018  0.22110681  0.01911201     0.27400
H432        H  0.25133174  0.27976416  0.01671750     0.27400
C433        C  0.35971877  0.39090983  0.52339321     0.24800
C434        C  0.38552177  0.39044540  0.99838378    -0.23300
C435        C  0.38433233  0.36675421  0.97218133     0.19700
C436        C  0.35913386  0.34230604  0.97145157     0.24800
C437        C  0.33506211  0.34091652  0.99723600    -0.23200
C438        C  0.33475103  0.36611987  0.52426571     0.19700
F439        F  0.31085718  0.36733532  0.54861848    -0.13200
F440        F  0.35976264  0.41553206  0.54715651    -0.15500
F441        F  0.35848112  0.31957470  0.94589878    -0.15500
F442        F  0.40727718  0.36771094  0.94699609    -0.13200
C443        C  0.36722199  0.11804494  0.52725115     0.24800
C444        C  0.39101489  0.11559871  0.00200280    -0.23300
C445        C  0.38833165  0.13741642  0.97439466     0.19700
C446        C  0.36359499  0.16250099  0.97388799     0.24800
C447        C  0.34102974  0.16572225  0.00085570    -0.23200
C448        C  0.34274188  0.14330967  0.52762511     0.19700
F449        F  0.32205528  0.14637483  0.55461275    -0.13200
F450        F  0.37025996  0.09723832  0.55409855    -0.15500
F451        F  0.36132882  0.18338448  0.94698661    -0.15500
F452        F  0.40897564  0.13366095  0.94750610    -0.13200
C453        C  0.10861699  0.35646195  0.98268405     0.24800
C454        C  0.11055627  0.38454265  0.00425400    -0.23300
C455        C  0.13747464  0.38689347  0.02717641     0.19700
C456        C  0.16227349  0.36185473  0.02815159     0.24800
C457        C  0.16079664  0.33431671  0.00595647    -0.23200
C458        C  0.13364074  0.33163135  0.98342599     0.19700
F459        F  0.13183916  0.30531618  0.96161756    -0.13200
F460        F  0.08320028  0.35374264  0.95997361    -0.15500
F461        F  0.18523779  0.36244343  0.55050623    -0.15500
F462        F  0.13707984  0.41142841  0.54947084    -0.13200
C463        C  0.11218899  0.13984008  0.98551690     0.24800
C464        C  0.11599773  0.11009209  0.00427066    -0.23300
C465        C  0.14499694  0.10588775  0.02422379     0.19700
C466        C  0.16937319  0.13126336  0.02586814     0.24800
C467        C  0.16592788  0.16067545  0.00649201    -0.23200
C468        C  0.13712978  0.16459137  0.98616962     0.19700
F469        F  0.13311642  0.19249672  0.96688249    -0.13200
F470        F  0.08459080  0.14466595  0.96589565    -0.15500
F471        F  0.19275659  0.12985836  0.54303007    -0.15500
F472        F  0.14427781  0.08184061  0.54204406    -0.13200
C473        C  0.36028281  0.02676436  0.88984099     0.24800
C474        C  0.38852230  0.50165392  0.88706789    -0.23300
C475        C  0.39148856  0.47999540  0.85918003     0.19700
C476        C  0.36658194  0.47948813  0.83424561     0.24800
C477        C  0.33882541  0.00710997  0.83563958    -0.23200
C478        C  0.33589520  0.02786642  0.86431492     0.19700
F479        F  0.30917654  0.04897060  0.86775542    -0.13200
F480        F  0.35635887  0.04659138  0.91745453    -0.15500
F481        F  0.36948629  0.45736680  0.80831414    -0.15500
F482        F  0.41797065  0.45846015  0.85666091    -0.13200
C483        C  0.11193560  0.47517234  0.86242875     0.24800
C484        C  0.11369311  0.49818444  0.88923435    -0.23300
C485        C  0.14035296  0.02402995  0.88952959     0.19700
C486        C  0.16485349  0.02349012  0.86420540     0.24800
C487        C  0.16374602  0.99891297  0.83863284    -0.23200
C488        C  0.13654703  0.47506085  0.83738625     0.19700
F489        F  0.13424687  0.45241592  0.81183605    -0.13200
F490        F  0.08695931  0.45202163  0.86111101    -0.15500
F491        F  0.18930010  0.04734025  0.86421042    -0.15500
F492        F  0.14151894  0.04838869  0.91353396    -0.13200
C493        C  0.10654032  0.47637895  0.64161035     0.24800
C494        C  0.11047605  0.99367347  0.61330519    -0.23300
C495        C  0.13360174  0.02011144  0.61658114     0.19700
C496        C  0.15868827  0.01901157  0.64119710     0.24800
C497        C  0.16116006  0.99133060  0.66293908    -0.23200
C498        C  0.13138272  0.47404083  0.66642224     0.19700
F499        F  0.12576205  0.45416443  0.69358097    -0.13200
F500        F  0.07754850  0.45910480  0.64571535    -0.15500
F501        F  0.18043504  0.04518630  0.64412958    -0.15500
F502        F  0.13142639  0.04735906  0.59626678    -0.13200
C503        C  0.38995832  0.47850998  0.63915731     0.24800
C504        C  0.38452616  0.99892564  0.60929619    -0.23300
C505        C  0.35466698  0.01758043  0.60503111     0.19700
C506        C  0.33053329  0.01878731  0.63061229     0.24800
C507        C  0.33518550  0.00039459  0.66050932    -0.23200
C508        C  0.36511228  0.47711296  0.66404163     0.19700
F509        F  0.37018727  0.45716612  0.69127116    -0.13200
F510        F  0.41836900  0.45984653  0.64306037    -0.15500
F511        F  0.30254665  0.03797026  0.62617681    -0.15500
F512        F  0.34909844  0.03527775  0.57639659    -0.13200
C513        C  0.03057184  0.11318001  0.86392419     0.24800
C514        C  0.50912271  0.11645227  0.89124727    -0.23300
C515        C  0.48990532  0.14612896  0.89437871     0.19700
C516        C  0.49032917  0.17047023  0.86896177     0.24800
C517        C  0.51096102  0.16625186  0.84052056    -0.23200
C518        C  0.03163348  0.13802609  0.83897896     0.19700
F519        F  0.05391186  0.13488068  0.81331081    -0.13200
F520        F  0.05183814  0.08645659  0.86182108    -0.15500
F521        F  0.46970799  0.19767444  0.87157711    -0.15500
F522        F  0.46970138  0.15103668  0.92143526    -0.13200
C523        C  0.48297550  0.35726928  0.89194277     0.24800
C524        C  0.49858079  0.38856992  0.88642965    -0.23300
C525        C  0.01348799  0.39443325  0.85536068     0.19700
C526        C  0.01452374  0.36925011  0.83084552     0.24800
C527        C  0.49878081  0.33861036  0.83581887    -0.23200
C528        C  0.48229182  0.33290758  0.86656021     0.19700
F529        F  0.46553210  0.30365088  0.87202823    -0.13200
F530        F  0.46772207  0.35041450  0.92164417    -0.15500
F531        F  0.03199772  0.37484519  0.80207494    -0.15500
F532        F  0.02814770  0.42445200  0.84859548    -0.13200
C533        C  0.51058687  0.39133105  0.64271509     0.24800
C534        C  0.49421269  0.38689333  0.61162871    -0.23300
C535        C  0.97664518  0.35681379  0.60617181     0.19700
C536        C  0.97438550  0.33238951  0.63150489     0.24800
C537        C  0.49152579  0.33635398  0.66192744    -0.23200
C538        C  0.51050521  0.36584276  0.66687944     0.19700
F539        F  0.02943728  0.37023838  0.69539193    -0.13200
F540        F  0.02701740  0.42055013  0.65000981    -0.15500
F541        F  0.45412613  0.30502088  0.62617871    -0.15500
F542        F  0.45985946  0.35152870  0.57651008    -0.13200
C543        C  0.47181233  0.13822421  0.61265522     0.24800
C544        C  0.49497274  0.11141918  0.61391238    -0.23300
C545        C  0.01816557  0.10940079  0.64061668     0.19700
C546        C  0.01824305  0.13407188  0.66574549     0.24800
C547        C  0.49416270  0.16061106  0.66530821    -0.23200
C548        C  0.47107494  0.16236601  0.63842656     0.19700
F549        F  0.44801084  0.18762490  0.63705614    -0.13200
F550        F  0.44963806  0.14075168  0.58674223    -0.15500
F551        F  0.04182386  0.13253414  0.69044342    -0.15500
F552        F  0.04133535  0.08425530  0.64190477    -0.13200
N553        N  0.99444266  0.74860883  0.19747504    -0.35400
N554        N  0.99638981  0.80040831  0.24842667    -0.55900
N555        N  0.00135085  0.74947427  0.29968905    -0.35400
N556        N  0.00172316  0.69755223  0.24894926    -0.55900
C557        C  0.00210065  0.77608842  0.17903845     0.28200
C558        C  0.00378745  0.72139823  0.17933801     0.28200
C559        C  0.01042742  0.77754737  0.31670450     0.28200
C560        C  0.01339895  0.72276859  0.31698897     0.28200
C561        C  0.98610741  0.81836907  0.22151370     0.36800
C562        C  0.98850238  0.81877544  0.27592912     0.36800
C563        C  0.99302592  0.67818966  0.22241764     0.36800
C564        C  0.99698890  0.67854073  0.27662200     0.36800
C565        C  0.01679978  0.76619853  0.14894887    -0.20700
C566        C  0.01764793  0.73155694  0.14904908    -0.20700
C567        C  0.02912727  0.76860010  0.34481882    -0.20700
C568        C  0.03077635  0.73391942  0.34512517    -0.20700
C569        C  0.97112442  0.84816101  0.23186802    -0.21700
C570        C  0.97239018  0.84831162  0.26645346    -0.21700
C571        C  0.98258874  0.64673652  0.23318514    -0.21700
C572        C  0.98495021  0.64700424  0.26765146    -0.21700
C573        C  0.99365616  0.80949330  0.18796410    -0.17100
C574        C  0.99770668  0.68776295  0.18866325    -0.17100
C575        C  0.00611623  0.68877093  0.30939501    -0.17100
C576        C  0.99931999  0.81049260  0.30880950    -0.17100
H577        H  0.02552645  0.78220542  0.12878692     0.15900
H578        H  0.02713315  0.71565744  0.12902989     0.15900
H579        H  0.03973480  0.78525904  0.36361243     0.15900
H580        H  0.04283369  0.71862298  0.36416567     0.15900
H581        H  0.96099644  0.86795765  0.21613524     0.14100
H582        H  0.96337476  0.86831113  0.28265275     0.14100
H583        H  0.97464443  0.62566630  0.21780607     0.14100
H584        H  0.97900802  0.62617460  0.28408634     0.14100
H585        H  0.98001441  0.74822751  0.21933286     0.27400
H586        H  0.98402484  0.74840860  0.28001620     0.27400
O587        O  0.49936200  0.59555449  0.05531347    -0.78900
O588        O  0.49759165  0.90391537  0.05429266    -0.80400
O589        O  0.44516598  0.49855897  0.09701685    -0.77500
O590        O  0.05562167  0.49662952  0.09649372    -0.75800
O591        O  0.09674199  0.49841227  0.05615825    -0.77600
O592        O  0.40484124  0.00283595  0.05506459    -0.78600
O593        O  0.50039173  0.94392228  0.09575081    -0.79900
O594        O  0.50049232  0.55453249  0.09577043    -0.80200
Eu595      Eu  0.50023478  0.49880853  0.06869505     2.39200
O596        O  0.03374200  0.96450033  0.03439455    -0.86100
O597        O  0.46671664  0.53419583  0.03494552    -0.91300
C598        C  0.49975771  0.58554479  0.08605581     1.03400
C599        C  0.49885272  0.91311030  0.08548631     1.03200
C600        C  0.41425201  0.49994194  0.08696807     1.03200
C601        C  0.08664203  0.49716754  0.08693056     1.01000
H602        H  0.45104012  0.95283070  0.04759076     0.30800
O603        O  0.46546768  0.96674181  0.03382682    -1.00100
H604        H  0.04875738  0.54709504  0.04958140     0.30800
O605        O  0.03466372  0.53319501  0.03524710    -1.02600
O606        O  0.49978319  0.90552529  0.44255133    -0.79900
O607        O  0.50098911  0.59607402  0.44382638    -0.79400
O608        O  0.40262876  0.94705060  0.49575137    -0.77800
O609        O  0.09423731  0.94396380  0.50299890    -0.81200
O610        O  0.09545313  0.55459296  0.49928874    -0.79000
O611        O  0.40345634  0.55665133  0.49897278    -0.77700
O612        O  0.44626406  0.00177863  0.40216346    -0.79200
O613        O  0.05772830  0.99905064  0.40509992    -0.81100
O614        O  0.40476954  0.00411644  0.44206964    -0.77900
O615        O  0.09746741  0.99957642  0.44690773    -0.80500
O616        O  0.44275405  0.90558796  0.49408314    -0.76300
O617        O  0.44451893  0.59695253  0.49648175    -0.76300
O618        O  0.05495793  0.59563079  0.49586697    -0.75900
O619        O  0.05304285  0.90382723  0.49903002    -0.79400
O620        O  0.50108135  0.94625666  0.40208031    -0.78900
O621        O  0.50339479  0.55526967  0.40313513    -0.77200
Eu622      Eu  0.49838368  0.93242485  0.49813210     2.39800
Eu623      Eu  0.49963482  0.56840071  0.49895922     2.39600
Eu624      Eu  0.43135611  0.00184353  0.49780557     2.38400
Eu625      Eu  0.06762369  0.99970669  0.50093856     2.39900
Eu626      Eu  0.50129192  0.00128847  0.43082541     2.39800
O627        O  0.03413370  0.53336861  0.46575384    -0.91600
O628        O  0.46555222  0.96753728  0.46365515    -0.90500
C629        C  0.50059761  0.91516525  0.41159689     1.03600
C630        C  0.50293135  0.58635790  0.41289454     1.02300
C631        C  0.41191979  0.91590382  0.49423866     1.01700
C632        C  0.08403658  0.91318205  0.50140584     1.03700
C633        C  0.08584543  0.58560623  0.49692686     1.02600
C634        C  0.41344534  0.58752597  0.49744854     1.01500
C635        C  0.41510727  0.00334477  0.41131475     1.01500
C636        C  0.08849386  0.99893549  0.41570821     1.04100
H637        H  0.45232829  0.54874130  0.44971760     0.31500
O638        O  0.46601996  0.53447916  0.46411338    -1.03800
H639        H  0.04819648  0.95201198  0.45167778     0.33500
O640        O  0.03405666  0.96614222  0.46530257    -1.06300
N641        N  0.24837474  0.50149419  0.19873155    -0.35400
N642        N  0.30050262  0.50494305  0.24891491    -0.55900
N643        N  0.25006215  0.50476788  0.30133662    -0.35400
N644        N  0.19776859  0.49878913  0.25116581    -0.55900
C645        C  0.27588671  0.49413012  0.18009011     0.28200
C646        C  0.22122010  0.49066167  0.18135974     0.28200
C647        C  0.27819878  0.49699882  0.31882643     0.28200
C648        C  0.22352596  0.49517470  0.32018967     0.28200
C649        C  0.31828972  0.51333378  0.22129287     0.36800
C650        C  0.31929779  0.51414010  0.27568559     0.36800
C651        C  0.17772932  0.50330076  0.22411764     0.36800
C652        C  0.17876775  0.50586821  0.27839108     0.36800
C653        C  0.26604578  0.47816842  0.15059238    -0.20700
C654        C  0.23144586  0.47630524  0.15125023    -0.20700
C655        C  0.26941860  0.48193265  0.34902449    -0.20700
C656        C  0.23479659  0.48105137  0.35000238    -0.20700
C657        C  0.34834005  0.52848164  0.23054110    -0.21700
C658        C  0.34902130  0.52889742  0.26510155    -0.21700
C659        C  0.14576685  0.51307966  0.23412689    -0.21700
C660        C  0.14647615  0.51490198  0.26863079    -0.21700
C661        C  0.30920570  0.50376287  0.18827152    -0.17100
C662        C  0.18748143  0.49628575  0.19078942    -0.17100
C663        C  0.18951880  0.50096503  0.31183245    -0.17100
C664        C  0.31122300  0.50593870  0.30921821    -0.17100
H665        H  0.28202617  0.46934244  0.13038383     0.15900
H666        H  0.21559872  0.46590431  0.13165945     0.15900
H667        H  0.28616718  0.47308054  0.36860391     0.15900
H668        H  0.21964601  0.47133315  0.37038238     0.15900
H669        H  0.36808201  0.53744432  0.21413110     0.14100
H670        H  0.36936122  0.53825845  0.28063770     0.14100
H671        H  0.12414015  0.51795776  0.21827055     0.14100
H672        H  0.12547083  0.52143272  0.28469223     0.14100
H673        H  0.24779008  0.51683866  0.21998485     0.27400
H674        H  0.24888613  0.51954036  0.27975841     0.27400
N675        N  0.24942152  0.69921463  0.49733120    -0.35400
N676        N  0.19701178  0.74997177  0.49701182    -0.55900
N677        N  0.24828681  0.80249254  0.49828692    -0.35400
N678        N  0.30066557  0.75172627  0.49407473    -0.55900
C679        C  0.22222679  0.67977883  0.49069432     0.28200
C680        C  0.27711897  0.68069684  0.49017534     0.28200
C681        C  0.22026551  0.82080188  0.49201406     0.28200
C682        C  0.27504647  0.82163721  0.48962897     0.28200
C683        C  0.17793452  0.72242833  0.50272756     0.36800
C684        C  0.17755466  0.77687634  0.50452124     0.36800
C685        C  0.32034551  0.72476937  0.50077241     0.36800
C686        C  0.31966258  0.77925016  0.50035995     0.36800
C687        C  0.23281879  0.64842007  0.47942468    -0.20700
C688        C  0.26745468  0.64897782  0.47916309    -0.20700
C689        C  0.22928146  0.85202920  0.47933775    -0.20700
C690        C  0.26388623  0.85252103  0.47774695    -0.20700
C691        C  0.14618933  0.73187959  0.51368623    -0.21700
C692        C  0.14598561  0.76639168  0.51494445    -0.21700
C693        C  0.35195968  0.73518751  0.51121951    -0.21700
C694        C  0.35151329  0.76974460  0.51100440    -0.21700
C695        C  0.18823873  0.68892695  0.49650099    -0.17100
C696        C  0.31082137  0.69090763  0.49559762    -0.17100
C697        C  0.30920444  0.81275728  0.49455781    -0.17100
C698        C  0.18695222  0.81075180  0.49938919    -0.17100
H699        H  0.21724043  0.62717275  0.47248018     0.15900
H700        H  0.28368023  0.62824411  0.47201122     0.15900
H701        H  0.21266381  0.87244256  0.47221269     0.15900
H702        H  0.27909744  0.87340687  0.46922991     0.15900
H703        H  0.12532113  0.71562558  0.52004462     0.14100
H704        H  0.12484977  0.78197966  0.52228845     0.14100
H705        H  0.37316856  0.71951771  0.51816071     0.14100
H706        H  0.37229320  0.78599642  0.51778934     0.14100
H707        H  0.24928478  0.72226420  0.50971187     0.27400
H708        H  0.24914493  0.77994640  0.51148701     0.27400
C709        C  0.35876801  0.89061264  0.02211386     0.24800
C710        C  0.38525633  0.89009188  0.49346001    -0.23300
C711        C  0.38602519  0.86388709  0.46963059     0.19700
C712        C  0.36096507  0.83914155  0.46950076     0.24800
C713        C  0.33518612  0.83978336  0.49371984    -0.23200
C714        C  0.33415247  0.86530970  0.02210713     0.19700
F715        F  0.31052087  0.86501029  0.04673504    -0.13200
F716        F  0.35823737  0.91446839  0.04662682    -0.15500
F717        F  0.36182839  0.81448678  0.44578037    -0.15500
F718        F  0.41068797  0.86261319  0.44611175    -0.13200
C719        C  0.36409422  0.61528272  0.02842901     0.24800
C720        C  0.38735361  0.61403450  0.49687916    -0.23300
C721        C  0.38621428  0.63762105  0.47060363     0.19700
C722        C  0.36147899  0.66277936  0.47016126     0.24800
C723        C  0.33749597  0.66462313  0.49604017    -0.23200
C724        C  0.33879960  0.63986581  0.02815918     0.19700
F725        F  0.31492452  0.63974655  0.05258110    -0.13200
F726        F  0.36491573  0.59263174  0.05378526    -0.15500
F727        F  0.36071456  0.68517766  0.44440351    -0.15500
F728        F  0.40832448  0.63553989  0.44479684    -0.13200
C729        C  0.10934106  0.86140019  0.47685349     0.24800
C730        C  0.10984812  0.88666512  0.50161841    -0.23300
C731        C  0.13542450  0.88664974  0.52608510     0.19700
C732        C  0.16032804  0.86171290  0.52560712     0.24800
C733        C  0.16023301  0.83690351  0.50034127    -0.23200
C734        C  0.13445584  0.83679073  0.47611564     0.19700
F735        F  0.13372633  0.81281791  0.45171754    -0.13200
F736        F  0.08508112  0.86120119  0.45275251    -0.15500
F737        F  0.18725130  0.86516328  0.04551519    -0.15500
F738        F  0.13883948  0.91354879  0.04439179    -0.13200
C739        C  0.11177200  0.63703748  0.47144385     0.24800
C740        C  0.11219724  0.61166307  0.49606301    -0.23300
C741        C  0.13769844  0.61168131  0.52052030     0.19700
C742        C  0.16233639  0.63674326  0.52063953     0.24800
C743        C  0.16209924  0.66206301  0.49602678    -0.23200
C744        C  0.13663562  0.66201606  0.47137066     0.19700
F745        F  0.13594820  0.68617644  0.44726454    -0.13200
F746        F  0.08774698  0.63718727  0.44709751    -0.15500
F747        F  0.19325916  0.62969631  0.04446862    -0.15500
F748        F  0.14593418  0.58039653  0.04283664    -0.13200
C749        C  0.36017144  0.52338912  0.38942491     0.24800
C750        C  0.38928825  0.00455093  0.38463270    -0.23300
C751        C  0.39140565  0.98291100  0.35665781     0.19700
C752        C  0.36637197  0.98341500  0.33191541     0.24800
C753        C  0.33841952  0.50559574  0.33501417    -0.23200
C754        C  0.33532522  0.52485954  0.36457389     0.19700
F755        F  0.30817450  0.54513752  0.36935101    -0.13200
F756        F  0.35646848  0.54241058  0.41762265    -0.15500
F757        F  0.36792500  0.96105167  0.30606446    -0.15500
F758        F  0.41699909  0.96035835  0.35396141    -0.13200
C759        C  0.11304434  0.97492155  0.36311989     0.24800
C760        C  0.11536246  0.99765466  0.39013322    -0.23300
C761        C  0.13965739  0.52442166  0.38968419     0.19700
C762        C  0.16421346  0.52481991  0.36448974     0.24800
C763        C  0.16398319  0.50026682  0.33895926    -0.23200
C764        C  0.13795987  0.97394315  0.33838349     0.19700
F765        F  0.13560170  0.95082764  0.31326670    -0.13200
F766        F  0.08699939  0.95302143  0.36114457    -0.15500
F767        F  0.18778586  0.54953098  0.36451609    -0.15500
F768        F  0.14024172  0.54837353  0.41411309    -0.13200
C769        C  0.11795168  0.96533728  0.13165712     0.24800
C770        C  0.11251931  0.49663072  0.11325313    -0.23300
C771        C  0.13160700  0.52559544  0.11984718     0.19700
C772        C  0.15589511  0.52537120  0.14526211     0.24800
C773        C  0.16149179  0.49611666  0.16416635    -0.23200
C774        C  0.14280070  0.96347959  0.15658864     0.19700
F775        F  0.14746437  0.93422254  0.17356934    -0.13200
F776        F  0.09932643  0.93765265  0.12432798    -0.15500
F777        F  0.17373253  0.55378115  0.15182664    -0.15500
F778        F  0.12599801  0.55433308  0.10233288    -0.13200
C779        C  0.39203262  0.98316728  0.14188386     0.24800
C780        C  0.38732358  0.50027462  0.11277491    -0.23300
C781        C  0.35720435  0.51806059  0.10688423     0.19700
C782        C  0.33203712  0.51951116  0.13133709     0.24800
C783        C  0.33589349  0.50220819  0.16190338    -0.23200
C784        C  0.36631178  0.98196638  0.16576256     0.19700
F785        F  0.37060088  0.96276060  0.19365909    -0.13200
F786        F  0.42078928  0.96554707  0.14765082    -0.15500
F787        F  0.30386566  0.53790150  0.12508111    -0.15500
F788        F  0.35212549  0.53438270  0.07744335    -0.13200
C789        C  0.02529881  0.60881814  0.35839317     0.24800
C790        C  0.50505630  0.61290010  0.38685209    -0.23300
C791        C  0.48633550  0.64287105  0.39003404     0.19700
C792        C  0.48791843  0.66772157  0.36524942     0.24800
C793        C  0.50889991  0.66350998  0.33712929    -0.23200
C794        C  0.02705542  0.63412201  0.33399615     0.19700
F795        F  0.04800878  0.63001820  0.30734709    -0.13200
F796        F  0.04468767  0.58085338  0.35478883    -0.15500
F797        F  0.46825637  0.69559100  0.36828095    -0.15500
F798        F  0.46574735  0.64779718  0.41671961    -0.13200
C799        C  0.48716439  0.85654285  0.39179565     0.24800
C800        C  0.50111613  0.88848654  0.38533532    -0.23300
C801        C  0.01454626  0.89393248  0.35363598     0.19700
C802        C  0.01551748  0.86835009  0.32944094     0.24800
C803        C  0.50207878  0.83736347  0.33547311    -0.23200
C804        C  0.48678751  0.83165705  0.36687171     0.19700
F805        F  0.47140661  0.80189925  0.37353736    -0.13200
F806        F  0.47339626  0.84936445  0.42214811    -0.15500
F807        F  0.03209524  0.87399359  0.30015492    -0.15500
F808        F  0.02883716  0.92398092  0.34623554    -0.13200
C809        C  0.51805890  0.88972080  0.14078607     0.24800
C810        C  0.49844644  0.88645796  0.11143742    -0.23300
C811        C  0.97747107  0.85766945  0.10690566     0.19700
C812        C  0.97576033  0.83292381  0.13182702     0.24800
C813        C  0.49726668  0.83598865  0.16136583    -0.23200
C814        C  0.51796798  0.86441624  0.16515472     0.19700
F815        F  0.03418149  0.86818493  0.19421931    -0.13200
F816        F  0.03423918  0.91815590  0.14791996    -0.15500
F817        F  0.45729844  0.80554737  0.12773501    -0.15500
F818        F  0.45899892  0.85372382  0.07932347    -0.13200
C819        C  0.47754677  0.63905769  0.11017240     0.24800
C820        C  0.49993644  0.61168030  0.11204680    -0.23300
C821        C  0.02148556  0.61039759  0.13842244     0.19700
C822        C  0.02168575  0.63542993  0.16304213     0.24800
C823        C  0.50063536  0.66150802  0.16214610    -0.23200
C824        C  0.47739340  0.66344352  0.13550855     0.19700
F825        F  0.45462546  0.68896566  0.13409792    -0.13200
F826        F  0.45565201  0.64196761  0.08404758    -0.15500
F827        F  0.04566768  0.63467742  0.18738256    -0.15500
F828        F  0.04507105  0.58561702  0.13947495    -0.13200
N829        N  0.99745452  0.74863161  0.69870352    -0.35400
N830        N  0.99920597  0.80099239  0.74875267    -0.55900
N831        N  0.00583069  0.75035507  0.80105192    -0.35400
N832        N  0.00692620  0.69770355  0.75095913    -0.55900
C833        C  0.00417605  0.77604414  0.67963239     0.28200
C834        C  0.00686860  0.72122591  0.68082412     0.28200
C835        C  0.01374417  0.77888643  0.81790282     0.28200
C836        C  0.01776175  0.72410195  0.81917331     0.28200
C837        C  0.98803356  0.81851489  0.72181858     0.36800
C838        C  0.99132676  0.81939861  0.77625746     0.36800
C839        C  0.99783772  0.67805063  0.72465980     0.36800
C840        C  0.00278614  0.67894390  0.77901528     0.36800
C841        C  0.01864729  0.76586620  0.64953712    -0.20700
C842        C  0.02005575  0.73121962  0.65017219    -0.20700
C843        C  0.03151760  0.77071567  0.84685549    -0.20700
C844        C  0.03390714  0.73605665  0.84773452    -0.20700
C845        C  0.97247258  0.84798272  0.73226050    -0.21700
C846        C  0.97452532  0.84853509  0.76680251    -0.21700
C847        C  0.98790341  0.64663111  0.73602365    -0.21700
C848        C  0.99097218  0.64721373  0.77049555    -0.21700
C849        C  0.99516927  0.80956449  0.68809878    -0.17100
C850        C  0.00113079  0.68750424  0.69051235    -0.17100
C851        C  0.01139411  0.68979157  0.81187363    -0.17100
C852        C  0.00218099  0.81152944  0.80924189    -0.17100
H853        H  0.02682161  0.78164646  0.62897419     0.15900
H854        H  0.02941014  0.71518208  0.63020256     0.15900
H855        H  0.04098868  0.78787598  0.86581077     0.15900
H856        H  0.04556132  0.72130801  0.86744748     0.15900
H857        H  0.96146474  0.86736031  0.71659842     0.14100
H858        H  0.96534698  0.86845467  0.78301056     0.14100
H859        H  0.97958598  0.62543074  0.72103325     0.14100
H860        H  0.98529190  0.62658159  0.78727478     0.14100
H861        H  0.98346481  0.74824079  0.72084161     0.27400
H862        H  0.98920904  0.74871443  0.78084193     0.27400
O863        O  0.49851489  0.59627570  0.55437944    -0.78900
O864        O  0.49745719  0.90397329  0.55327508    -0.80400
O865        O  0.44276092  0.49940228  0.59397346    -0.77500
O866        O  0.05446008  0.49749125  0.59535722    -0.75800
O867        O  0.09562597  0.49860101  0.55521391    -0.77600
O868        O  0.40215973  0.00115411  0.55225168    -0.78600
O869        O  0.49849611  0.94414530  0.59458284    -0.79900
O870        O  0.50014845  0.55540274  0.59497092    -0.80200
Eu871      Eu  0.49895173  0.49993322  0.56742813     2.39200
O872        O  0.03217330  0.96550900  0.53326356    -0.86100
O873        O  0.46512318  0.53482855  0.53324759    -0.91300
C874        C  0.49941118  0.58642592  0.58531722     1.03400
C875        C  0.49791868  0.91323258  0.58448195     1.03200
C876        C  0.41175789  0.49968863  0.58396546     1.03200
C877        C  0.08562033  0.49744414  0.58602815     1.01000
H878        H  0.44957905  0.95229161  0.54565308     0.30800
O879        O  0.46409732  0.96649730  0.53227990    -1.00100
H880        H  0.04782460  0.54823009  0.54776256     0.30800
O881        O  0.03366515  0.53417231  0.53366594    -1.02600
O882        O  0.49850191  0.90561077  0.94302597    -0.79900
O883        O  0.50393464  0.59673020  0.94644868    -0.79400
O884        O  0.40243794  0.94756407  0.99982832    -0.77800
O885        O  0.09393609  0.94191483  0.00118686    -0.81200
O886        O  0.09705001  0.55335753  0.00192718    -0.79000
O887        O  0.40461986  0.55717614  0.00339632    -0.77700
O888        O  0.44586554  0.00340310  0.90394557    -0.79200
O889        O  0.05699880  0.00040110  0.90548043    -0.81100
O890        O  0.40477113  0.00482978  0.94428338    -0.77900
O891        O  0.09754045  0.00085802  0.94656590    -0.80500
O892        O  0.44225293  0.90585258  0.99738547    -0.76300
O893        O  0.44603317  0.59709839  0.00091208    -0.76300
O894        O  0.05660208  0.59452413  0.00094989    -0.75900
O895        O  0.05225738  0.90217064  0.99865592    -0.79400
O896        O  0.50060055  0.94685915  0.90303524    -0.78900
O897        O  0.50625529  0.55647395  0.90525032    -0.77200
Eu898      Eu  0.49848026  0.93213548  0.99901866     2.39800
Eu899      Eu  0.50098606  0.56793823  0.00074802     2.39600
Eu900      Eu  0.43223217  0.00217574  0.99986773     2.38400
Eu901      Eu  0.06905188  0.99864763  0.00143870     2.39900
Eu902      Eu  0.50123191  0.00183434  0.93194146     2.39800
O903        O  0.03513182  0.53343875  0.96719625    -0.91600
O904        O  0.46567046  0.96782278  0.96501250    -0.90500
C905        C  0.49950805  0.91566281  0.91216318     1.03600
C906        C  0.50645358  0.58742434  0.91546207     1.02300
C907        C  0.41143672  0.91628486  0.99842928     1.01700
C908        C  0.08340077  0.91118044  0.99995778     1.03700
C909        C  0.08751860  0.58444505  0.00142319     1.02600
C910        C  0.41488075  0.58799576  0.00266641     1.01500
C911        C  0.41475629  0.00463680  0.91335848     1.01500
C912        C  0.08792794  0.00072752  0.91552917     1.04100
H913        H  0.45263718  0.54992243  0.95169268     0.31500
O914        O  0.46630963  0.53530919  0.96575495    -1.03800
H915        H  0.04780328  0.95193380  0.95223592     0.33500
O916        O  0.03398315  0.96608847  0.96635591    -1.06300
N917        N  0.24865144  0.49477358  0.69906267    -0.35400
N918        N  0.30127619  0.49730851  0.74935899    -0.55900
N919        N  0.25038680  0.49983426  0.80154038    -0.35400
N920        N  0.19765403  0.49372040  0.75111494    -0.55900
C921        C  0.27607790  0.48609247  0.68083969     0.28200
C922        C  0.22129253  0.48368222  0.68208022     0.28200
C923        C  0.27828312  0.49265143  0.81973968     0.28200
C924        C  0.22346203  0.49170865  0.82063092     0.28200
C925        C  0.31932369  0.50467316  0.72152059     0.36800
C926        C  0.32045713  0.50619633  0.77605669     0.36800
C927        C  0.17825913  0.49985522  0.72384891     0.36800
C928        C  0.17927986  0.50287607  0.77820358     0.36800
C929        C  0.26608174  0.46879730  0.65218280    -0.20700
C930        C  0.23144346  0.46720457  0.65300551    -0.20700
C931        C  0.26894995  0.47957322  0.85067658    -0.20700
C932        C  0.23431502  0.47905082  0.85126297    -0.20700
C933        C  0.34998615  0.51865036  0.73059001    -0.21700
C934        C  0.35079379  0.51939341  0.76516672    -0.21700
C935        C  0.14748105  0.51313966  0.73367389    -0.21700
C936        C  0.14807433  0.51487838  0.76817724    -0.21700
C937        C  0.30949816  0.49587212  0.68839270    -0.17100
C938        C  0.18758785  0.49151066  0.69054488    -0.17100
C939        C  0.18951680  0.49787790  0.81184774    -0.17100
C940        C  0.31168978  0.50016025  0.80999634    -0.17100
H941        H  0.28204742  0.45887024  0.63246552     0.15900
H942        H  0.21549108  0.45595620  0.63397514     0.15900
H943        H  0.28536197  0.47169925  0.87094627     0.15900
H944        H  0.21889525  0.47069821  0.87204096     0.15900
H945        H  0.36995142  0.52689084  0.71407751     0.14100
H946        H  0.37144243  0.52836737  0.78051964     0.14100
H947        H  0.12667876  0.52063347  0.71775559     0.14100
H948        H  0.12782360  0.52380564  0.78406866     0.14100
H949        H  0.24838662  0.51127784  0.71946670     0.27400
H950        H  0.24965674  0.51327271  0.77910193     0.27400
N951        N  0.25041658  0.69862505  0.00402480    -0.35400
N952        N  0.19779432  0.74869597  0.00248524    -0.55900
N953        N  0.24820170  0.80146267  0.00139202    -0.35400
N954        N  0.30093628  0.75130857  0.99976326    -0.55900
C955        C  0.22341666  0.67962519  0.99575668     0.28200
C956        C  0.27816598  0.68077032  0.99574389     0.28200
C957        C  0.22001091  0.81873965  0.99318340     0.28200
C958        C  0.27484985  0.82031944  0.99183026     0.28200
C959        C  0.17966959  0.72123368  0.01069668     0.36800
C960        C  0.17842603  0.77559444  0.00996059     0.36800
C961        C  0.32060783  0.72472453  0.00781286     0.36800
C962        C  0.31959139  0.77916525  0.00555011     0.36800
C963        C  0.23415772  0.64941131  0.98180230    -0.20700
C964        C  0.26880784  0.65004053  0.98202581    -0.20700
C965        C  0.22882267  0.84892136  0.97808025    -0.20700
C966        C  0.26350060  0.84994832  0.97730102    -0.20700
C967        C  0.14875869  0.73067590  0.02384210    -0.21700
C968        C  0.14795833  0.76524727  0.02336546    -0.21700
C969        C  0.35187172  0.73569373  0.01871560    -0.21700
C970        C  0.35124456  0.77025468  0.01723103    -0.21700
C971        C  0.18962549  0.68798705  0.00314974    -0.17100
C972        C  0.31155061  0.69075491  0.00258282    -0.17100
C973        C  0.30896225  0.81232453  0.99829333    -0.17100
C974        C  0.18681146  0.80898353  0.00155090    -0.17100
H975        H  0.21867769  0.62879736  0.97297285     0.15900
H976        H  0.28524076  0.63005906  0.97336716     0.15900
H977        H  0.21202429  0.86840494  0.96904830     0.15900
H978        H  0.27863807  0.87032380  0.96752280     0.15900
H979        H  0.12865586  0.71437227  0.03220738     0.14100
H980        H  0.12708812  0.78091993  0.03126922     0.14100
H981        H  0.37303611  0.72037666  0.02651865     0.14100
H982        H  0.37179155  0.78689261  0.02378042     0.14100
H983        H  0.25010406  0.72062492  0.01830966     0.27400
H984        H  0.24920377  0.78008338  0.01644813     0.27400
C985        C  0.35922683  0.89100401  0.51732924     0.24800
C986        C  0.38459966  0.89037342  0.99793293    -0.23300
C987        C  0.38515769  0.86453811  0.97368669     0.19700
C988        C  0.36027740  0.83959756  0.97333503     0.24800
C989        C  0.33458260  0.83973596  0.99758945    -0.23200
C990        C  0.33460360  0.86587326  0.51767629     0.19700
F991        F  0.31055826  0.86652968  0.54189210    -0.13200
F992        F  0.35846947  0.91550278  0.54120622    -0.15500
F993        F  0.36137916  0.81510839  0.94945879    -0.15500
F994        F  0.40958138  0.86377078  0.94996142    -0.13200
C995        C  0.36342273  0.61603980  0.52276509     0.24800
C996        C  0.38898528  0.61478192  0.00333838    -0.23300
C997        C  0.38846382  0.63966167  0.97830078     0.19700
C998        C  0.36332467  0.66436201  0.97808986     0.24800
C999        C  0.33832124  0.66461610  0.00299220    -0.23200
C1000       C  0.33886596  0.64132914  0.52250456     0.19700
F1001       F  0.31669116  0.64354206  0.54836267    -0.13200
F1002       F  0.36443724  0.59404970  0.54877987    -0.15500
F1003       F  0.36290940  0.68770028  0.95319440    -0.15500
F1004       F  0.41162659  0.63931177  0.95334513    -0.13200
C1005       C  0.10658104  0.85615136  0.97934411     0.24800
C1006       C  0.10909763  0.88444552  0.00056847    -0.23300
C1007       C  0.13661180  0.88723589  0.02262520     0.19700
C1008       C  0.16151783  0.86245230  0.02317829     0.24800
C1009       C  0.15971380  0.83478956  0.00122470    -0.23200
C1010       C  0.13194046  0.83164758  0.97942133     0.19700
F1011       F  0.12954696  0.80495687  0.95812197    -0.13200
F1012       F  0.08009695  0.85268493  0.95796788    -0.15500
F1013       F  0.18425166  0.86138300  0.55003434    -0.15500
F1014       F  0.13576236  0.91026286  0.55086115    -0.13200
C1015       C  0.11086655  0.63885503  0.98048603     0.24800
C1016       C  0.11392033  0.61051628  0.00140649    -0.23300
C1017       C  0.14227742  0.60744804  0.02239279     0.19700
C1018       C  0.16670969  0.63270746  0.02312323     0.24800
C1019       C  0.16361993  0.66108587  0.00229439    -0.23200
C1020       C  0.13562653  0.66381080  0.98074612     0.19700
F1021       F  0.13237700  0.69062318  0.95984139    -0.13200
F1022       F  0.08436289  0.64189907  0.95908504    -0.15500
F1023       F  0.18612481  0.63669663  0.54518116    -0.15500
F1024       F  0.13797354  0.58806370  0.54508273    -0.13200
C1025       C  0.36040279  0.52307958  0.88939706     0.24800
C1026       C  0.38869096  0.00575914  0.88666549    -0.23300
C1027       C  0.39191252  0.98548977  0.85778523     0.19700
C1028       C  0.36700829  0.98575799  0.83283925     0.24800
C1029       C  0.33851723  0.50106145  0.83639411    -0.23200
C1030       C  0.33571272  0.52290719  0.86422399     0.19700
F1031       F  0.30896323  0.54405878  0.86704134    -0.13200
F1032       F  0.35724314  0.54476175  0.91568312    -0.15500
F1033       F  0.36995923  0.96439012  0.80629917    -0.15500
F1034       F  0.41852770  0.96425238  0.85438205    -0.13200
C1035       C  0.11317765  0.97574216  0.86392451     0.24800
C1036       C  0.11421721  0.00023405  0.88940235    -0.23300
C1037       C  0.14081695  0.52077711  0.89096518     0.19700
C1038       C  0.16552418  0.52068852  0.86590785     0.24800
C1039       C  0.16349140  0.49792683  0.83878502    -0.23200
C1040       C  0.13775738  0.97493454  0.83886942     0.19700
F1041       F  0.13615711  0.95073809  0.81472810    -0.13200
F1042       F  0.08880105  0.95194127  0.86388927    -0.15500
F1043       F  0.19120673  0.54311788  0.86785456    -0.15500
F1044       F  0.14284959  0.54354231  0.91643056    -0.13200
C1045       C  0.11343643  0.96544798  0.63437076     0.24800
C1046       C  0.11181364  0.49566162  0.61251624    -0.23300
C1047       C  0.14252866  0.51277903  0.60881675     0.19700
C1048       C  0.16689642  0.51154036  0.63418657     0.24800
C1049       C  0.16164369  0.49211816  0.66329457    -0.23200
C1050       C  0.13864992  0.96427472  0.65911734     0.19700
F1051       F  0.14153376  0.93660245  0.67890070    -0.13200
F1052       F  0.09279885  0.93860180  0.63007824    -0.15500
F1053       F  0.19547652  0.52986372  0.63054966    -0.15500
F1054       F  0.14865573  0.53155115  0.58105864    -0.13200
C1055       C  0.38885931  0.98001213  0.63888684     0.24800
C1056       C  0.38509649  0.49800095  0.61002930    -0.23300
C1057       C  0.35441927  0.51537332  0.60597794     0.19700
C1058       C  0.33004567  0.51490939  0.63142564     0.24800
C1059       C  0.33522513  0.49594256  0.66088457    -0.23200
C1060       C  0.36425771  0.98041494  0.66401238     0.19700
F1061       F  0.36867909  0.96099412  0.69173580    -0.13200
F1062       F  0.41652335  0.96031929  0.64310409    -0.15500
F1063       F  0.30155968  0.53345685  0.62750595    -0.15500
F1064       F  0.34824386  0.53340944  0.57768309    -0.13200
C1065       C  0.03161727  0.61105149  0.86287574     0.24800
C1066       C  0.50948874  0.61434041  0.88991544    -0.23300
C1067       C  0.48968726  0.64363125  0.89241734     0.19700
C1068       C  0.49103585  0.66838438  0.86748369     0.24800
C1069       C  0.51278822  0.66475341  0.83982197    -0.23200
C1070       C  0.03348966  0.63622237  0.83825774     0.19700
F1071       F  0.05573313  0.63268962  0.81260727    -0.13200
F1072       F  0.05231724  0.58388374  0.86064518    -0.15500
F1073       F  0.47016320  0.69540994  0.86976779    -0.15500
F1074       F  0.46798087  0.64772174  0.91838863    -0.13200
C1075       C  0.48371785  0.85821054  0.89069093     0.24800
C1076       C  0.49965815  0.88941014  0.88543310    -0.23300
C1077       C  0.01621338  0.89478565  0.85483995     0.19700
C1078       C  0.01809478  0.86919997  0.83063211     0.24800
C1079       C  0.50144648  0.83846819  0.83544274    -0.23200
C1080       C  0.48378267  0.83344373  0.86562295     0.19700
F1081       F  0.46626504  0.80457456  0.87072149    -0.13200
F1082       F  0.46735758  0.85183238  0.91986608    -0.15500
F1083       F  0.03625980  0.87452714  0.80223661    -0.15500
F1084       F  0.03101382  0.92475093  0.84817618    -0.13200
C1085       C  0.51369852  0.89155862  0.64178269     0.24800
C1086       C  0.49742654  0.88658720  0.61067646    -0.23300
C1087       C  0.97977904  0.85620379  0.60526509     0.19700
C1088       C  0.97798041  0.83181623  0.63067194     0.24800
C1089       C  0.49557465  0.83622808  0.66127061    -0.23200
C1090       C  0.51367784  0.86630722  0.66626724     0.19700
F1091       F  0.03129215  0.87144219  0.69499251    -0.13200
F1092       F  0.02976211  0.92086590  0.64847739    -0.15500
F1093       F  0.45953905  0.80373363  0.62505151    -0.15500
F1094       F  0.46416446  0.85035754  0.57549537    -0.13200
C1095       C  0.47695917  0.63945999  0.61117150     0.24800
C1096       C  0.49991377  0.61248850  0.61182778    -0.23300
C1097       C  0.02330225  0.61053837  0.63805428     0.19700
C1098       C  0.02363606  0.63475466  0.66364189     0.24800
C1099       C  0.50014301  0.66106123  0.66378758    -0.23200
C1100       C  0.47671371  0.66327195  0.63722848     0.19700
F1101       F  0.45362949  0.68853728  0.63655651    -0.13200
F1102       F  0.45433400  0.64232122  0.58568332    -0.15500
F1103       F  0.04756379  0.63292396  0.68797980    -0.15500
F1104       F  0.04666724  0.58554198  0.63845561    -0.13200
N1105       N  0.49352833  0.24872657  0.19814811    -0.35400
N1106       N  0.49468349  0.30044057  0.24879193    -0.55900
N1107       N  0.50083447  0.24947836  0.30007376    -0.35400
N1108       N  0.50138359  0.19759377  0.24973353    -0.55900
C1109       C  0.50020722  0.27632099  0.17946870     0.28200
C1110       C  0.50333319  0.22167233  0.18000273     0.28200
C1111       C  0.50944897  0.27754820  0.31725096     0.28200
C1112       C  0.51247345  0.22289897  0.31778510     0.28200
C1113       C  0.48447994  0.31867377  0.22205676     0.36800
C1114       C  0.48791665  0.31908717  0.27635671     0.36800
C1115       C  0.49361924  0.17803420  0.22310150     0.36800
C1116       C  0.49710762  0.17837323  0.27732440     0.36800
C1117       C  0.51466432  0.26665497  0.14919480    -0.20700
C1118       C  0.51645021  0.23205758  0.14946040    -0.20700
C1119       C  0.52720937  0.26874607  0.34600474    -0.20700
C1120       C  0.52900241  0.23412840  0.34639891    -0.20700
C1121       C  0.47068288  0.34897397  0.23263585    -0.21700
C1122       C  0.47278739  0.34920898  0.26717973    -0.21700
C1123       C  0.48429423  0.14615883  0.23370721    -0.21700
C1124       C  0.48635140  0.14641796  0.26822646    -0.21700
C1125       C  0.49144679  0.30965227  0.18843974    -0.17100
C1126       C  0.49824823  0.18788884  0.18944187    -0.17100
C1127       C  0.50559936  0.18890642  0.31014034    -0.17100
C1128       C  0.49869540  0.31043666  0.30905701    -0.17100
H1129       H  0.52267962  0.28276963  0.12882335     0.15900
H1130       H  0.52600763  0.21631855  0.12934934     0.15900
H1131       H  0.53708625  0.28547494  0.36513489     0.15900
H1132       H  0.54052468  0.21892386  0.36584020     0.15900
H1133       H  0.46101086  0.36911790  0.21705914     0.14100
H1134       H  0.46497687  0.36958124  0.28354729     0.14100
H1135       H  0.47734879  0.12484057  0.21818019     0.14100
H1136       H  0.48119113  0.12533966  0.28461932     0.14100
H1137       H  0.47942020  0.24806069  0.22019218     0.27400
H1138       H  0.48394914  0.24834770  0.28004801     0.27400
O1139       O  0.00133991  0.09592290  0.05642842    -0.78900
O1140       O  0.99771175  0.40282054  0.05448903    -0.80400
O1141       O  0.94516757  0.00032483  0.09631580    -0.77500
O1142       O  0.55607395  0.99709558  0.09683549    -0.75800
O1143       O  0.59705298  0.99724259  0.05632020    -0.77600
O1144       O  0.90491074  0.50122587  0.05599906    -0.78600
O1145       O  0.99979170  0.44316035  0.09565106    -0.79900
O1146       O  0.00201039  0.05481992  0.09680171    -0.80200
Eu1147     Eu  0.00056650  0.99947578  0.06887920     2.39200
O1148       O  0.53390949  0.46431288  0.03441466    -0.86100
O1149       O  0.96720990  0.03474731  0.03494509    -0.91300
C1150       C  0.00160762  0.08584320  0.08716649     1.03400
C1151       C  0.99836284  0.41226041  0.08558654     1.03200
C1152       C  0.91423397  0.00162473  0.08635644     1.03200
C1153       C  0.58707752  0.99665833  0.08717300     1.01000
H1154       H  0.95114839  0.45193760  0.04789699     0.30800
O1155       O  0.96541619  0.46592114  0.03404605    -1.00100
H1156       H  0.54996667  0.04687771  0.05004171     0.30800
O1157       O  0.53570123  0.03333908  0.03553873    -1.02600
O1158       O  0.99868143  0.40380892  0.44346921    -0.79900
O1159       O  0.00286261  0.09716107  0.44521288    -0.79400
O1160       O  0.90257339  0.44640580  0.49915387    -0.77800
O1161       O  0.59429686  0.44279371  0.50212032    -0.81200
O1162       O  0.59590470  0.05485882  0.50138557    -0.79000
O1163       O  0.90441441  0.05740169  0.49991978    -0.77700
O1164       O  0.94602538  0.49997396  0.40196054    -0.79200
O1165       O  0.55666021  0.49919548  0.40439531    -0.81100
O1166       O  0.90493909  0.50224139  0.44223354    -0.77900
O1167       O  0.59679165  0.50074701  0.44581152    -0.80500
O1168       O  0.94263837  0.40486403  0.49728390    -0.76300
O1169       O  0.94565888  0.09762887  0.49803745    -0.76300
O1170       O  0.55596057  0.09642425  0.49913834    -0.75900
O1171       O  0.55300140  0.40263402  0.49978184    -0.79400
O1172       O  0.00084650  0.44436417  0.40278508    -0.78900
O1173       O  0.00522290  0.05691299  0.40389878    -0.77200
Eu1174     Eu  0.99844394  0.43154794  0.49883852     2.39800
Eu1175     Eu  0.00041958  0.06902383  0.50003326     2.39600
Eu1176     Eu  0.93118666  0.50115145  0.49826413     2.38400
Eu1177     Eu  0.56782804  0.49910871  0.50019929     2.39900
Eu1178     Eu  0.00068889  0.49960036  0.43072569     2.39800
O1179       O  0.53472928  0.03470622  0.46650129    -0.91600
O1180       O  0.96508937  0.46616611  0.46423964    -0.90500
C1181       C  0.99981719  0.41338545  0.41247688     1.03600
C1182       C  0.00499565  0.08780598  0.41418683     1.02300
C1183       C  0.91184092  0.41525691  0.49835138     1.01700
C1184       C  0.58405434  0.41190710  0.50141092     1.03700
C1185       C  0.58676427  0.08601566  0.49991143     1.02600
C1186       C  0.91464205  0.08818448  0.49909799     1.01500
C1187       C  0.91498311  0.50157820  0.41135445     1.01500
C1188       C  0.58746402  0.50019873  0.41473903     1.04100
H1189       H  0.95313775  0.05041757  0.45004087     0.31500
O1190       O  0.96669990  0.03575395  0.46437693    -1.03800
H1191       H  0.54827926  0.45077631  0.45154298     0.33500
O1192       O  0.53409768  0.46498466  0.46527066    -1.06300
N1193       N  0.74925102  0.99560026  0.19873338    -0.35400
N1194       N  0.80112171  0.00339216  0.24854811    -0.55900
N1195       N  0.75065194  0.00211492  0.30108050    -0.35400
N1196       N  0.69848771  0.99169442  0.25121293    -0.55900
C1197       C  0.77697754  0.98962486  0.17992549     0.28200
C1198       C  0.72245864  0.98403920  0.18127942     0.28200
C1199       C  0.77915520  0.99649866  0.31881978     0.28200
C1200       C  0.72464365  0.99181596  0.32033268     0.28200
C1201       C  0.81887006  0.01114818  0.22073225     0.36800
C1202       C  0.81979253  0.01351459  0.27505025     0.36800
C1203       C  0.67854615  0.99582798  0.22396044     0.36800
C1204       C  0.67938378  0.99919216  0.27833771     0.36800
C1205       C  0.76768519  0.97362179  0.15027043    -0.20700
C1206       C  0.73316044  0.97040214  0.15099101    -0.20700
C1207       C  0.77118625  0.98224684  0.34961283    -0.20700
C1208       C  0.73668418  0.97940787  0.35061538    -0.20700
C1209       C  0.84881260  0.02676637  0.22960737    -0.21700
C1210       C  0.84948806  0.02805452  0.26413572    -0.21700
C1211       C  0.64651266  0.00556078  0.23379455    -0.21700
C1212       C  0.64709739  0.00789111  0.26829448    -0.21700
C1213       C  0.80985346  0.00083656  0.18791446    -0.17100
C1214       C  0.68857946  0.98921620  0.19052038    -0.17100
C1215       C  0.69032541  0.99582230  0.31202064    -0.17100
C1216       C  0.81178432  0.00626361  0.30876011    -0.17100
H1217       H  0.78393657  0.96590570  0.12982523     0.15900
H1218       H  0.71765120  0.95986787  0.13120470     0.15900
H1219       H  0.78838559  0.97510840  0.36950315     0.15900
H1220       H  0.72209593  0.96964449  0.37137763     0.15900
H1221       H  0.86852316  0.03544982  0.21301043     0.14100
H1222       H  0.86978142  0.03785642  0.27946402     0.14100
H1223       H  0.62496789  0.01037508  0.21781058     0.14100
H1224       H  0.62609992  0.01492826  0.28414756     0.14100
H1225       H  0.74804162  0.01089605  0.21997252     0.27400
H1226       H  0.74871701  0.01596153  0.27895460     0.27400
N1227       N  0.75163642  0.19863348  0.50220573    -0.35400
N1228       N  0.69838799  0.24859344  0.50098579    -0.55900
N1229       N  0.74839290  0.30169651  0.50396257    -0.35400
N1230       N  0.80164915  0.25178543  0.50136546    -0.55900
C1231       C  0.72488193  0.17916420  0.49423463     0.28200
C1232       C  0.77962930  0.18090434  0.49442374     0.28200
C1233       C  0.72035098  0.31943525  0.49628875     0.28200
C1234       C  0.77510276  0.32120140  0.49615569     0.28200
C1235       C  0.68027592  0.22070696  0.50782629     0.36800
C1236       C  0.67849590  0.27509183  0.50878954     0.36800
C1237       C  0.82201097  0.22510548  0.50688096     0.36800
C1238       C  0.82015538  0.27949615  0.50796785     0.36800
C1239       C  0.73603305  0.14861396  0.48137921    -0.20700
C1240       C  0.77063515  0.14964647  0.48167633    -0.20700
C1241       C  0.72931512  0.35062846  0.48352504    -0.20700
C1242       C  0.76392539  0.35174759  0.48344580    -0.20700
C1243       C  0.64882278  0.22952983  0.52010768    -0.21700
C1244       C  0.64766951  0.26405014  0.52063784    -0.21700
C1245       C  0.85365327  0.23583689  0.51688955    -0.21700
C1246       C  0.85243366  0.27037583  0.51774673    -0.21700
C1247       C  0.69084925  0.18753561  0.50051856    -0.17100
C1248       C  0.81299655  0.19135629  0.50066295    -0.17100
C1249       C  0.80916050  0.31280651  0.50215389    -0.17100
C1250       C  0.68702748  0.30901746  0.50291211    -0.17100
H1251       H  0.72085391  0.12756366  0.47308300     0.15900
H1252       H  0.78727710  0.12956292  0.47366849     0.15900
H1253       H  0.71265716  0.37065629  0.47547244     0.15900
H1254       H  0.77910841  0.37279169  0.47527571     0.15900
H1255       H  0.62868509  0.21284744  0.52759693     0.14100
H1256       H  0.62648309  0.27927134  0.52857261     0.14100
H1257       H  0.87541305  0.22041523  0.52258516     0.14100
H1258       H  0.87311604  0.28688109  0.52421713     0.14100
H1259       H  0.75090694  0.22098262  0.51584863     0.27400
H1260       H  0.74918677  0.27931664  0.51747137     0.27400
C1261       C  0.86125601  0.38970031  0.02542576     0.24800
C1262       C  0.88516782  0.38957970  0.49899851    -0.23300
C1263       C  0.88507025  0.36335152  0.47528329     0.19700
C1264       C  0.85993707  0.33887488  0.47586719     0.24800
C1265       C  0.83482295  0.33987232  0.50065481    -0.23200
C1266       C  0.83638424  0.36479141  0.02574641     0.19700
F1267       F  0.81400059  0.36388472  0.05149968    -0.13200
F1268       F  0.86231893  0.41275830  0.05069349    -0.15500
F1269       F  0.86007610  0.31407634  0.45227508    -0.15500
F1270       F  0.90888361  0.36189154  0.45103517    -0.13200
C1271       C  0.86961133  0.11900693  0.03150531     0.24800
C1272       C  0.88887799  0.11462324  0.49946986    -0.23300
C1273       C  0.88572558  0.13676161  0.47218579     0.19700
C1274       C  0.86130396  0.16213135  0.47267240     0.24800
C1275       C  0.83975059  0.16542362  0.50043884    -0.23200
C1276       C  0.84455248  0.14375113  0.03169567     0.19700
F1277       F  0.82419724  0.14695082  0.05892462    -0.13200
F1278       F  0.87354016  0.09892777  0.05877691    -0.15500
F1279       F  0.85810577  0.18297320  0.44582931    -0.15500
F1280       F  0.90543398  0.13292369  0.44462018    -0.13200
C1281       C  0.60828045  0.35796704  0.47961343     0.24800
C1282       C  0.60976075  0.38509516  0.50239549    -0.23300
C1283       C  0.63596747  0.38637666  0.52614093     0.19700
C1284       C  0.66064472  0.36123941  0.52673422     0.24800
C1285       C  0.65986536  0.33481420  0.50317956    -0.23200
C1286       C  0.63340302  0.33324713  0.47971654     0.19700
F1287       F  0.63224417  0.30803605  0.45659518    -0.13200
F1288       F  0.58308270  0.35597772  0.45657641    -0.15500
F1289       F  0.68676109  0.36450410  0.05302691    -0.15500
F1290       F  0.63838123  0.41319939  0.05030588    -0.13200
C1291       C  0.61184376  0.13910875  0.47719172     0.24800
C1292       C  0.61369644  0.11154328  0.49924394    -0.23300
C1293       C  0.64174317  0.10833745  0.52059064     0.19700
C1294       C  0.66689409  0.13283980  0.52088689     0.24800
C1295       C  0.66493247  0.16055738  0.49909741    -0.23200
C1296       C  0.63750036  0.16317461  0.47680645     0.19700
F1297       F  0.63548369  0.18927876  0.45488454    -0.13200
F1298       F  0.58558496  0.14235609  0.45553025    -0.15500
F1299       F  0.69379997  0.12810932  0.05130676    -0.15500
F1300       F  0.64659286  0.07868728  0.04687447    -0.13200
C1301       C  0.86215824  0.02806199  0.38683545     0.24800
C1302       C  0.88893851  0.50327399  0.38486510    -0.23300
C1303       C  0.89255236  0.48492640  0.35475830     0.19700
C1304       C  0.86718406  0.48566323  0.33037529     0.24800
C1305       C  0.83907077  0.00681084  0.33429509    -0.23200
C1306       C  0.83756331  0.02919501  0.36165986     0.19700
F1307       F  0.81215582  0.05200969  0.36398116    -0.13200
F1308       F  0.85984522  0.04960892  0.41331579    -0.15500
F1309       F  0.87049228  0.46629926  0.30236775    -0.15500
F1310       F  0.92020005  0.46552535  0.34928414    -0.13200
C1311       C  0.61389738  0.47584424  0.36350570     0.24800
C1312       C  0.61402676  0.50029259  0.38902611    -0.23300
C1313       C  0.64235755  0.02028598  0.39117763     0.19700
C1314       C  0.66668732  0.01983165  0.36571849     0.24800
C1315       C  0.66496541  0.99584569  0.33961681    -0.23200
C1316       C  0.63893678  0.47554703  0.33898110     0.19700
F1317       F  0.63887405  0.45094274  0.31519112    -0.13200
F1318       F  0.59002203  0.45162425  0.36294392    -0.15500
F1319       F  0.69162965  0.04316012  0.36620047    -0.15500
F1320       F  0.64456492  0.04364552  0.41608454    -0.13200
C1321       C  0.61803017  0.46725937  0.13214108     0.24800
C1322       C  0.61311253  0.99476900  0.11336919    -0.23300
C1323       C  0.63078882  0.02373007  0.12329560     0.19700
C1324       C  0.65590504  0.02154595  0.14788725     0.24800
C1325       C  0.66293011  0.99062249  0.16347124    -0.23200
C1326       C  0.64249478  0.46697586  0.15749410     0.19700
F1327       F  0.64798937  0.43837294  0.17533100    -0.13200
F1328       F  0.60001328  0.43894696  0.12577737    -0.15500
F1329       F  0.67330184  0.04960258  0.15679772    -0.15500
F1330       F  0.62331020  0.05413553  0.10963969    -0.13200
C1331       C  0.89094935  0.48268152  0.14338389     0.24800
C1332       C  0.88760096  0.00150763  0.11231543    -0.23300
C1333       C  0.85739152  0.01940674  0.10721943     0.19700
C1334       C  0.83223690  0.01940779  0.13177128     0.24800
C1335       C  0.83629906  0.00055859  0.16137955    -0.23200
C1336       C  0.86526187  0.48332282  0.16743792     0.19700
F1337       F  0.86900717  0.46509038  0.19605846    -0.13200
F1338       F  0.91886309  0.46386467  0.14946184    -0.15500
F1339       F  0.80404539  0.03814884  0.12680387    -0.15500
F1340       F  0.85246347  0.03755288  0.07876310    -0.13200
C1341       C  0.52837104  0.11145178  0.36109783     0.24800
C1342       C  0.00686949  0.11452233  0.38853857    -0.23300
C1343       C  0.98622938  0.14321246  0.39114426     0.19700
C1344       C  0.98588986  0.16722259  0.36557483     0.24800
C1345       C  0.00747300  0.16387299  0.33781978    -0.23200
C1346       C  0.52921124  0.13632385  0.33625641     0.19700
F1347       F  0.55185358  0.13375314  0.31082815    -0.13200
F1348       F  0.54968856  0.08478199  0.35876731    -0.15500
F1349       F  0.96408528  0.19353976  0.36761138    -0.15500
F1350       F  0.96572435  0.14760697  0.41803759    -0.13200
C1351       C  0.98175015  0.35693379  0.39077504     0.24800
C1352       C  0.99990926  0.38693046  0.38617224    -0.23300
C1353       C  0.51818726  0.39129045  0.35599550     0.19700
C1354       C  0.51860378  0.36605650  0.33145523     0.24800
C1355       C  0.99945752  0.33674253  0.33585803    -0.23200
C1356       C  0.98101367  0.33235634  0.36562516     0.19700
F1357       F  0.96220256  0.30423387  0.37029104    -0.13200
F1358       F  0.96407574  0.35163928  0.41934360    -0.15500
F1359       F  0.53800037  0.37008165  0.30365583    -0.15500
F1360       F  0.53612803  0.41968137  0.35059432    -0.13200
C1361       C  0.01575164  0.38901481  0.14144845     0.24800
C1362       C  0.99681463  0.38586446  0.11169179    -0.23300
C1363       C  0.47533343  0.35776243  0.10739485     0.19700
C1364       C  0.47283231  0.33353955  0.13278266     0.24800
C1365       C  0.99259395  0.33643668  0.16243110    -0.23200
C1366       C  0.01409688  0.36426270  0.16628899     0.19700
F1367       F  0.53373665  0.36707482  0.19375269    -0.13200
F1368       F  0.53635666  0.41557729  0.14597246    -0.15500
F1369       F  0.95153452  0.30738888  0.12892660    -0.15500
F1370       F  0.95654534  0.35429898  0.07941672    -0.13200
C1371       C  0.97512821  0.13608701  0.11324967     0.24800
C1372       C  0.00099703  0.11194286  0.11317180    -0.23300
C1373       C  0.52651538  0.11323009  0.13756643     0.19700
C1374       C  0.52570203  0.13819821  0.16232543     0.24800
C1375       C  0.99914506  0.16170976  0.16320889    -0.23200
C1376       C  0.97407086  0.16073145  0.13830154     0.19700
F1377       F  0.94861382  0.18360712  0.13837142    -0.13200
F1378       F  0.95068352  0.13543003  0.08932847    -0.15500
F1379       F  0.55100955  0.13999563  0.18524288    -0.15500
F1380       F  0.55277230  0.09130895  0.13660929    -0.13200
N1381       N  0.49195240  0.24870205  0.69920388    -0.35400
N1382       N  0.49496042  0.30129249  0.74906003    -0.55900
N1383       N  0.50344921  0.25120086  0.80104986    -0.35400
N1384       N  0.50300302  0.19829901  0.75154841    -0.55900
C1385       C  0.49896972  0.27592469  0.67999528     0.28200
C1386       C  0.50081849  0.22108809  0.68135754     0.28200
C1387       C  0.51158590  0.27980156  0.81754556     0.28200
C1388       C  0.51619569  0.22521668  0.81892695     0.28200
C1389       C  0.48404700  0.31893662  0.72216548     0.36800
C1390       C  0.48781182  0.32002154  0.77651383     0.36800
C1391       C  0.49245424  0.17862208  0.72585123     0.36800
C1392       C  0.49940792  0.17992992  0.77992532     0.36800
C1393       C  0.51293820  0.26540279  0.64977334    -0.20700
C1394       C  0.51379898  0.23073838  0.65051274    -0.20700
C1395       C  0.53042908  0.27199498  0.84591855    -0.20700
C1396       C  0.53321783  0.23741215  0.84685943    -0.20700
C1397       C  0.46941721  0.34891390  0.73255644    -0.21700
C1398       C  0.47164312  0.34953332  0.76707930    -0.21700
C1399       C  0.48208840  0.14761413  0.73791633    -0.21700
C1400       C  0.48647289  0.14845301  0.77223899    -0.21700
C1401       C  0.49083505  0.30964219  0.68851000    -0.17100
C1402       C  0.49514995  0.18750774  0.69154108    -0.17100
C1403       C  0.50935302  0.19096636  0.81229517    -0.17100
C1404       C  0.49916910  0.31212358  0.80928682    -0.17100
H1405       H  0.52124714  0.28098283  0.62911146     0.15900
H1406       H  0.52283253  0.21448492  0.63057076     0.15900
H1407       H  0.54023149  0.28932700  0.86454708     0.15900
H1408       H  0.54551282  0.22286072  0.86632871     0.15900
H1409       H  0.45897918  0.36858764  0.71687264     0.14100
H1410       H  0.46322380  0.36983088  0.78323171     0.14100
H1411       H  0.47267008  0.12650643  0.72345895     0.14100
H1412       H  0.48086720  0.12819051  0.78948523     0.14100
H1413       H  0.47831197  0.24860567  0.72156618     0.27400
H1414       H  0.48600801  0.24931192  0.78156026     0.27400
O1415       O  0.99693602  0.09601042  0.55588746    -0.78900
O1416       O  0.99606838  0.40381905  0.55429030    -0.80400
O1417       O  0.94204396  0.99868888  0.59331430    -0.77500
O1418       O  0.55326791  0.99575773  0.59657630    -0.75800
O1419       O  0.59461501  0.99765410  0.55653431    -0.77600
O1420       O  0.90240905  0.50100357  0.55293176    -0.78600
O1421       O  0.99776050  0.44450837  0.59509834    -0.79900
O1422       O  0.99720155  0.05458450  0.59593335    -0.80200
Eu1423     Eu  0.99823550  0.99963528  0.56741619     2.39200
O1424       O  0.53281532  0.46514745  0.53352541    -0.86100
O1425       O  0.96530462  0.03481313  0.53293241    -0.91300
C1426       C  0.99640584  0.08572983  0.58669892     1.03400
C1427       C  0.99624758  0.41344515  0.58537828     1.03200
C1428       C  0.91119604  0.99959708  0.58303333     1.03200
C1429       C  0.58440939  0.99570027  0.58722797     1.01000
H1430       H  0.95042097  0.45272561  0.54640080     0.30800
O1431       O  0.96480840  0.46659471  0.53256531    -1.00100
H1432       H  0.54764089  0.04834238  0.54991067     0.30800
O1433       O  0.53369562  0.03459098  0.53529553    -1.02600
O1434       O  0.99854170  0.40444193  0.94417307    -0.79900
O1435       O  0.00454733  0.09833806  0.94782376    -0.79400
O1436       O  0.90294575  0.44676810  0.00104365    -0.77800
O1437       O  0.59493541  0.44216037  0.00350175    -0.81200
O1438       O  0.59836421  0.05308406  0.00417482    -0.79000
O1439       O  0.90579818  0.05806900  0.00299395    -0.77700
O1440       O  0.94551086  0.50067255  0.90434881    -0.79200
O1441       O  0.55642998  0.49849596  0.90497922    -0.81100
O1442       O  0.90443957  0.50203307  0.94475264    -0.77900
O1443       O  0.59688276  0.49915692  0.94611075    -0.80500
O1444       O  0.94305641  0.40526842  0.99844297    -0.76300
O1445       O  0.94764378  0.09771123  0.00182848    -0.76300
O1446       O  0.55822959  0.09450370  0.00304413    -0.75900
O1447       O  0.55357374  0.40212600  0.00100690    -0.79400
O1448       O  0.99942546  0.44558109  0.90405711    -0.78900
O1449       O  0.00541326  0.05830156  0.90631883    -0.77200
Eu1450     Eu  0.99911862  0.43144251  0.99971506     2.39800
Eu1451     Eu  0.00230782  0.06851518  0.00156051     2.39600
Eu1452     Eu  0.93183025  0.50129534  0.00036994     2.38400
Eu1453     Eu  0.56871700  0.49840901  0.00108400     2.39900
Eu1454     Eu  0.00082169  0.50051824  0.93224556     2.39800
O1455       O  0.53601472  0.03416486  0.96720457    -0.91600
O1456       O  0.96580674  0.46689583  0.96601487    -0.90500
C1457       C  0.99867600  0.41447671  0.91332616     1.03600
C1458       C  0.00598289  0.08921252  0.91672333     1.02300
C1459       C  0.91226645  0.41565791  0.99977213     1.01700
C1460       C  0.58466504  0.41131008  0.00299801     1.03700
C1461       C  0.58904889  0.08424474  0.00423819     1.02600
C1462       C  0.91646512  0.08872501  0.00286164     1.01500
C1463       C  0.91443525  0.50135623  0.91383896     1.01500
C1464       C  0.58733426  0.49871350  0.91507003     1.04100
H1465       H  0.95373999  0.05103104  0.95258246     0.31500
O1466       O  0.96726197  0.03614944  0.96650401    -1.03800
H1467       H  0.54830518  0.45087777  0.95211576     0.33500
O1468       O  0.53436895  0.46513817  0.96602002    -1.06300
N1469       N  0.74840195  0.99836367  0.69806960    -0.35400
N1470       N  0.80113287  0.00383014  0.74857592    -0.55900
N1471       N  0.75045685  0.00394625  0.80082180    -0.35400
N1472       N  0.69779139  0.99475284  0.75040941    -0.55900
C1473       C  0.77606804  0.99145232  0.67947180     0.28200
C1474       C  0.72141174  0.98724171  0.68047321     0.28200
C1475       C  0.77870297  0.99818139  0.81906742     0.28200
C1476       C  0.72393390  0.99469513  0.81999225     0.28200
C1477       C  0.81920747  0.01056639  0.72060069     0.36800
C1478       C  0.82041692  0.01286770  0.77517693     0.36800
C1479       C  0.67757259  0.99839430  0.72326926     0.36800
C1480       C  0.67873655  0.00219869  0.77755610     0.36800
C1481       C  0.76645926  0.97553415  0.64984438    -0.20700
C1482       C  0.73192220  0.97321760  0.65034114    -0.20700
C1483       C  0.76995276  0.98479786  0.85005274    -0.20700
C1484       C  0.73538333  0.98278611  0.85069822    -0.20700
C1485       C  0.85003908  0.02434606  0.72948181    -0.21700
C1486       C  0.85084825  0.02568244  0.76405222    -0.21700
C1487       C  0.64549810  0.00782427  0.73316702    -0.21700
C1488       C  0.64628242  0.01045536  0.76759122    -0.21700
C1489       C  0.80939935  0.00131876  0.68753375    -0.17100
C1490       C  0.68745281  0.99184699  0.68982674    -0.17100
C1491       C  0.68965741  0.99900146  0.81125862    -0.17100
C1492       C  0.81188328  0.00676821  0.80922185    -0.17100
H1493       H  0.78258775  0.96690628  0.62966631     0.15900
H1494       H  0.71628788  0.96258591  0.63070066     0.15900
H1495       H  0.78667806  0.97758919  0.87031180     0.15900
H1496       H  0.72036354  0.97380182  0.87150625     0.15900
H1497       H  0.87015971  0.03196212  0.71285069     0.14100
H1498       H  0.87167716  0.03451764  0.77924401     0.14100
H1499       H  0.62382316  0.01233512  0.71726872     0.14100
H1500       H  0.62525101  0.01734935  0.78345975     0.14100
H1501       H  0.74762740  0.01346351  0.71947253     0.27400
H1502       H  0.74902287  0.01714393  0.77828620     0.27400
N1503       N  0.75264529  0.19839889  0.00913478    -0.35400
N1504       N  0.69954617  0.24830703  0.00912507    -0.55900
N1505       N  0.74942702  0.30148201  0.00589624    -0.35400
N1506       N  0.80254885  0.25173070  0.00252133    -0.55900
C1507       C  0.72549045  0.17883306  0.00277443     0.28200
C1508       C  0.78022900  0.18064901  0.99999673     0.28200
C1509       C  0.72095482  0.31893950  0.99922335     0.28200
C1510       C  0.77567872  0.32090836  0.99648259     0.28200
C1511       C  0.68174852  0.22073784  0.01782363     0.36800
C1512       C  0.67996886  0.27517829  0.01641224     0.36800
C1513       C  0.82312452  0.22528325  0.00838261     0.36800
C1514       C  0.82138442  0.27965049  0.00713287     0.36800
C1515       C  0.73603311  0.14824251  0.98946389    -0.20700
C1516       C  0.77062916  0.14930118  0.98797605    -0.20700
C1517       C  0.72921661  0.34981599  0.98521101    -0.20700
C1518       C  0.76381556  0.35112147  0.98364358    -0.20700
C1519       C  0.65083657  0.23013487  0.03102054    -0.21700
C1520       C  0.64967442  0.26468916  0.03003793    -0.21700
C1521       C  0.85520250  0.23637548  0.01640253    -0.21700
C1522       C  0.85408018  0.27088197  0.01571168    -0.21700
C1523       C  0.69173454  0.18735067  0.01054493    -0.17100
C1524       C  0.81387197  0.19127962  0.00427857    -0.17100
C1525       C  0.80998275  0.31283401  0.00144141    -0.17100
C1526       C  0.68803097  0.30874537  0.00808002    -0.17100
H1527       H  0.72049948  0.12717814  0.98190747     0.15900
H1528       H  0.78688296  0.12925873  0.97911475     0.15900
H1529       H  0.71213977  0.36964710  0.97755648     0.15900
H1530       H  0.77856408  0.37207638  0.97450556     0.15900
H1531       H  0.63092654  0.21377826  0.03973537     0.14100
H1532       H  0.62871817  0.28027485  0.03788317     0.14100
H1533       H  0.87717275  0.22119243  0.02191761     0.14100
H1534       H  0.87503420  0.28756405  0.02064590     0.14100
H1535       H  0.75270527  0.22096108  0.02247538     0.27400
H1536       H  0.75099758  0.27951778  0.01998620     0.27400
C1537       C  0.85967627  0.39098363  0.52344894     0.24800
C1538       C  0.88567876  0.38996707  0.99989809    -0.23300
C1539       C  0.88473881  0.36529583  0.97459481     0.19700
C1540       C  0.85961811  0.34074764  0.97460200     0.24800
C1541       C  0.83532764  0.34024743  0.00023428    -0.23200
C1542       C  0.83471308  0.36619387  0.52434756     0.19700
F1543       F  0.81078693  0.36745864  0.54866732    -0.13200
F1544       F  0.85969117  0.41565498  0.54716147    -0.15500
F1545       F  0.85922436  0.31710030  0.94988243    -0.15500
F1546       F  0.90783109  0.36538518  0.94953294    -0.13200
C1547       C  0.86719386  0.11783070  0.52710935     0.24800
C1548       C  0.89097176  0.11551779  0.00362750    -0.23300
C1549       C  0.88741264  0.13741037  0.97618878     0.19700
C1550       C  0.86261834  0.16243540  0.97652001     0.24800
C1551       C  0.84077188  0.16541060  0.00410053    -0.23200
C1552       C  0.84277020  0.14314651  0.52761298     0.19700
F1553       F  0.82199858  0.14602666  0.55455499    -0.13200
F1554       F  0.87008763  0.09679199  0.55378947    -0.15500
F1555       F  0.85959442  0.18351492  0.94984319    -0.15500
F1556       F  0.90721306  0.13376938  0.94866718    -0.13200
C1557       C  0.60907008  0.35656634  0.98323423     0.24800
C1558       C  0.61046280  0.38455154  0.00495337    -0.23300
C1559       C  0.63687915  0.38691043  0.02844738     0.19700
C1560       C  0.66164766  0.36187318  0.02996654     0.24800
C1561       C  0.66065729  0.33433660  0.00773787    -0.23200
C1562       C  0.63409483  0.33175353  0.98449265     0.19700
F1563       F  0.63290718  0.30557075  0.96248568    -0.13200
F1564       F  0.58422890  0.35395201  0.95988521    -0.15500
F1565       F  0.68532149  0.36255126  0.55036642    -0.15500
F1566       F  0.63716566  0.41153102  0.54930330    -0.13200
C1567       C  0.61257509  0.13953997  0.98624694     0.24800
C1568       C  0.61547615  0.11025584  0.00582171    -0.23300
C1569       C  0.64344092  0.10642536  0.02722639     0.19700
C1570       C  0.66786776  0.13170292  0.02931554     0.24800
C1571       C  0.66536926  0.16066407  0.00913850    -0.23200
C1572       C  0.63753792  0.16422517  0.98746671     0.19700
F1573       F  0.63457011  0.19166440  0.96735117    -0.13200
F1574       F  0.58590926  0.14389843  0.96527150    -0.15500
F1575       F  0.69284885  0.12986614  0.54295466    -0.15500
F1576       F  0.64428702  0.08196029  0.54197614    -0.13200
C1577       C  0.86047394  0.02703448  0.88969706     0.24800
C1578       C  0.88838686  0.50134255  0.88726171    -0.23300
C1579       C  0.89131601  0.47968193  0.85937244     0.19700
C1580       C  0.86644732  0.47928331  0.83440003     0.24800
C1581       C  0.83899290  0.00744188  0.83548455    -0.23200
C1582       C  0.83610761  0.02821455  0.86415089     0.19700
F1583       F  0.80943908  0.04938600  0.86757712    -0.13200
F1584       F  0.85662319  0.04691579  0.91728007    -0.15500
F1585       F  0.86929831  0.45716677  0.80845873    -0.15500
F1586       F  0.91773148  0.45806283  0.85687583    -0.13200
C1587       C  0.61200042  0.47543464  0.86222670     0.24800
C1588       C  0.61375347  0.49835520  0.88910837    -0.23300
C1589       C  0.64032127  0.02442271  0.88927875     0.19700
C1590       C  0.66494180  0.02385163  0.86407746     0.24800
C1591       C  0.66396806  0.99922025  0.83855815    -0.23200
C1592       C  0.63657819  0.47544506  0.83715871     0.19700
F1593       F  0.63428302  0.45288996  0.81152833    -0.13200
F1594       F  0.58707775  0.45223753  0.86086941    -0.15500
F1595       F  0.68939739  0.04769358  0.86417345    -0.15500
F1596       F  0.64137651  0.04880700  0.91326298    -0.13200
C1597       C  0.60646953  0.47681904  0.64184613     0.24800
C1598       C  0.61059585  0.99403896  0.61345391    -0.23300
C1599       C  0.63383377  0.02040104  0.61654229     0.19700
C1600       C  0.65897506  0.01931863  0.64109458     0.24800
C1601       C  0.66137092  0.99173748  0.66296274    -0.23200
C1602       C  0.63138162  0.47455699  0.66659643     0.19700
F1603       F  0.62572002  0.45495854  0.69394749    -0.13200
F1604       F  0.57734487  0.45983747  0.64626483    -0.15500
F1605       F  0.68083377  0.04541941  0.64385667    -0.15500
F1606       F  0.63171083  0.04756380  0.59611685    -0.13200
C1607       C  0.89004868  0.47867295  0.63918738     0.24800
C1608       C  0.88449696  0.99893956  0.60895986    -0.23300
C1609       C  0.85459567  0.01751545  0.60470684     0.19700
C1610       C  0.83056115  0.01879829  0.63037111     0.24800
C1611       C  0.83533889  0.00051943  0.66032403    -0.23200
C1612       C  0.86522804  0.47730170  0.66409445     0.19700
F1613       F  0.87029440  0.45732298  0.69130216    -0.13200
F1614       F  0.91843239  0.45995872  0.64304723    -0.15500
F1615       F  0.80254581  0.03794314  0.62595949    -0.15500
F1616       F  0.84888870  0.03505812  0.57600401    -0.13200
C1617       C  0.53066001  0.11282834  0.86341942     0.24800
C1618       C  0.00822412  0.11619365  0.89116698    -0.23300
C1619       C  0.98786553  0.14514494  0.89363678     0.19700
C1620       C  0.98817304  0.16943327  0.86817582     0.24800
C1621       C  0.00971712  0.16584267  0.84034679    -0.23200
C1622       C  0.53195244  0.13775494  0.83856282     0.19700
F1623       F  0.55347627  0.13396507  0.81233984    -0.13200
F1624       F  0.55089576  0.08537925  0.86059996    -0.15500
F1625       F  0.96665344  0.19598693  0.87015141    -0.15500
F1626       F  0.96674663  0.14936348  0.92009181    -0.13200
C1627       C  0.98246118  0.35717753  0.89222670     0.24800
C1628       C  0.99811891  0.38843729  0.88665232    -0.23300
C1629       C  0.51403862  0.39461676  0.85518542     0.19700
C1630       C  0.51521051  0.36945175  0.83066121     0.24800
C1631       C  0.99799921  0.33845163  0.83603905    -0.23200
C1632       C  0.98156475  0.33283247  0.86683304     0.19700
F1633       F  0.96471332  0.30364351  0.87237834    -0.13200
F1634       F  0.96741906  0.35031961  0.92202860    -0.15500
F1635       F  0.53266572  0.37511820  0.80189155    -0.15500
F1636       F  0.52857811  0.42469375  0.84844352    -0.13200
C1637       C  0.01059798  0.39156733  0.64297130     0.24800
C1638       C  0.99446565  0.38697514  0.61177567    -0.23300
C1639       C  0.47607900  0.35690702  0.60611761     0.19700
C1640       C  0.47375861  0.33248773  0.63145340     0.24800
C1641       C  0.99197848  0.33638954  0.66206042    -0.23200
C1642       C  0.01066238  0.36605204  0.66711510     0.19700
F1643       F  0.52947338  0.36985329  0.69505225    -0.13200
F1644       F  0.52744254  0.42010475  0.64958627    -0.15500
F1645       F  0.95495870  0.30479087  0.62615413    -0.15500
F1646       F  0.96064436  0.35126329  0.57647780    -0.13200
C1647       C  0.97237108  0.13830424  0.61233035     0.24800
C1648       C  0.99546868  0.11144650  0.61356006    -0.23300
C1649       C  0.51751314  0.10932256  0.64109722     0.19700
C1650       C  0.51749609  0.13397958  0.66623169     0.24800
C1651       C  0.99491474  0.16071541  0.66489199    -0.23200
C1652       C  0.97178632  0.16250551  0.63804880     0.19700
F1653       F  0.94877884  0.18781554  0.63669902    -0.13200
F1654       F  0.95009501  0.14081450  0.58650216    -0.15500
F1655       F  0.54105135  0.13248528  0.69095775    -0.15500
F1656       F  0.54064805  0.08415249  0.64250151    -0.13200
N1657       N  0.49791334  0.74859623  0.19750419    -0.35400
N1658       N  0.49952792  0.80057557  0.24834842    -0.55900
N1659       N  0.50394641  0.74965124  0.29973954    -0.35400
N1660       N  0.50489890  0.69755754  0.24904170    -0.55900
C1661       C  0.50533781  0.77603632  0.17892206     0.28200
C1662       C  0.50710034  0.72135724  0.17932838     0.28200
C1663       C  0.51280590  0.77773867  0.31686065     0.28200
C1664       C  0.51570588  0.72294187  0.31723989     0.28200
C1665       C  0.48951255  0.81853545  0.22132331     0.36800
C1666       C  0.49148097  0.81901734  0.27576666     0.36800
C1667       C  0.49630970  0.67817900  0.22247200     0.36800
C1668       C  0.49979681  0.67863481  0.27671904     0.36800
C1669       C  0.51970265  0.76610827  0.14868905    -0.20700
C1670       C  0.52064114  0.73147487  0.14887546    -0.20700
C1671       C  0.53108521  0.76878722  0.34524978    -0.20700
C1672       C  0.53268919  0.73410321  0.34561066    -0.20700
C1673       C  0.47464073  0.84843436  0.23151322    -0.21700
C1674       C  0.47558635  0.84861157  0.26610281    -0.21700
C1675       C  0.48564513  0.64679837  0.23322221    -0.21700
C1676       C  0.48771334  0.64712960  0.26769950    -0.21700
C1677       C  0.49689307  0.80944050  0.18778769    -0.17100
C1678       C  0.50099542  0.68773476  0.18869910    -0.17100
C1679       C  0.50846234  0.68893696  0.30960645    -0.17100
C1680       C  0.50185884  0.81071064  0.30879626    -0.17100
H1681       H  0.52810200  0.78209056  0.12836683     0.15900
H1682       H  0.52989046  0.71555060  0.12876584     0.15900
H1683       H  0.54143761  0.78544846  0.36418348     0.15900
H1684       H  0.54444693  0.71881092  0.36483986     0.15900
H1685       H  0.46467715  0.86822975  0.21567551     0.14100
H1686       H  0.46645186  0.86864829  0.28218811     0.14100
H1687       H  0.47763125  0.62576029  0.21783646     0.14100
H1688       H  0.48145029  0.62638544  0.28412140     0.14100
H1689       H  0.48363783  0.74825424  0.21945565     0.27400
H1690       H  0.48690257  0.74857739  0.27982556     0.27400
O1691       O  0.99843554  0.59564493  0.05523553    -0.78900
O1692       O  0.99715070  0.90417669  0.05469760    -0.80400
O1693       O  0.94510777  0.49847578  0.09715513    -0.77500
O1694       O  0.55566412  0.49638881  0.09633756    -0.75800
O1695       O  0.59679589  0.49838606  0.05602762    -0.77600
O1696       O  0.90473797  0.00272289  0.05531818    -0.78600
O1697       O  0.99969582  0.94421819  0.09611707    -0.79900
O1698       O  0.99963919  0.55465545  0.09572227    -0.80200
Eu1699     Eu  0.00018747  0.49884741  0.06882200     2.39200
O1700       O  0.53389625  0.96450703  0.03408026    -0.86100
O1701       O  0.96663614  0.53405322  0.03496601    -0.91300
C1702       C  0.99859817  0.58565186  0.08598304     1.03400
C1703       C  0.99808675  0.91340744  0.08589904     1.03200
C1704       C  0.91419176  0.49986561  0.08710477     1.03200
C1705       C  0.58668474  0.49703037  0.08679073     1.01000
H1706       H  0.95082430  0.95291466  0.04774543     0.30800
O1707       O  0.96528409  0.96680192  0.03399329    -1.00100
H1708       H  0.54889933  0.54693480  0.04945038     0.30800
O1709       O  0.53473768  0.53310198  0.03512089    -1.02600
O1710       O  0.99919968  0.90531264  0.44251400    -0.79900
O1711       O  0.00081353  0.59588843  0.44362077    -0.79400
O1712       O  0.90251294  0.94698712  0.49542022    -0.77800
O1713       O  0.59436691  0.94422023  0.50300900    -0.81200
O1714       O  0.59548189  0.55458747  0.49946265    -0.79000
O1715       O  0.90347832  0.55664545  0.49897819    -0.77700
O1716       O  0.94619308  0.00220827  0.40191790    -0.79200
O1717       O  0.55774070  0.99910993  0.40521847    -0.81100
O1718       O  0.90468251  0.00445772  0.44181708    -0.77900
O1719       O  0.59749227  0.99982998  0.44702724    -0.80500
O1720       O  0.94260831  0.90548181  0.49395363    -0.76300
O1721       O  0.94453796  0.59694530  0.49638574    -0.76300
O1722       O  0.55497474  0.59562436  0.49611439    -0.75900
O1723       O  0.55320339  0.90404183  0.49910263    -0.79400
O1724       O  0.00047181  0.94601693  0.40200863    -0.78900
O1725       O  0.00319986  0.55507000  0.40295111    -0.77200
Eu1726     Eu  0.99823994  0.93228878  0.49801545     2.39800
Eu1727     Eu  0.99965231  0.56838450  0.49883103     2.39600
Eu1728     Eu  0.93128889  0.00178723  0.49750927     2.38400
Eu1729     Eu  0.56768230  0.99994982  0.50111004     2.39900
Eu1730     Eu  0.00123759  0.00115580  0.43059359     2.39800
O1731       O  0.53409493  0.53341016  0.46583657    -0.91600
O1732       O  0.96549599  0.96743050  0.46344735    -0.90500
C1733       C  0.99982837  0.91493120  0.41155660     1.03600
C1734       C  0.00263827  0.58615874  0.41268755     1.02300
C1735       C  0.91178752  0.91582777  0.49400208     1.01700
C1736       C  0.58418860  0.91342814  0.50140872     1.03700
C1737       C  0.58586519  0.58560150  0.49716227     1.02600
C1738       C  0.91346833  0.58751572  0.49741244     1.01500
C1739       C  0.91503452  0.00385906  0.41106868     1.01500
C1740       C  0.58850087  0.99903122  0.41583532     1.04100
H1741       H  0.95230317  0.54865873  0.44967233     0.31500
O1742       O  0.96601011  0.53441939  0.46407508    -1.03800
H1743       H  0.54834048  0.95226295  0.45188643     0.33500
O1744       O  0.53416148  0.96635572  0.46550919    -1.06300
N1745       N  0.74824162  0.50158278  0.19877018    -0.35400
N1746       N  0.80038404  0.50514983  0.24896844    -0.55900
N1747       N  0.74998620  0.50494500  0.30136936    -0.35400
N1748       N  0.69766506  0.49888047  0.25118471    -0.55900
C1749       C  0.77576681  0.49422728  0.18014691     0.28200
C1750       C  0.72110260  0.49069254  0.18140515     0.28200
C1751       C  0.77812260  0.49717820  0.31886368     0.28200
C1752       C  0.72345253  0.49532181  0.32020421     0.28200
C1753       C  0.81814914  0.51354004  0.22133400     0.36800
C1754       C  0.81919377  0.51435315  0.27572909     0.36800
C1755       C  0.67760867  0.50334492  0.22413995     0.36800
C1756       C  0.67868485  0.50601046  0.27840844     0.36800
C1757       C  0.76595057  0.47821344  0.15066802    -0.20700
C1758       C  0.73135281  0.47631111  0.15131704    -0.20700
C1759       C  0.76934341  0.48207864  0.34904444    -0.20700
C1760       C  0.73472147  0.48117557  0.35000805    -0.20700
C1761       C  0.84819676  0.52870747  0.23056549    -0.21700
C1762       C  0.84890226  0.52912402  0.26512787    -0.21700
C1763       C  0.64565344  0.51314368  0.23414876    -0.21700
C1764       C  0.64638840  0.51503641  0.26864990    -0.21700
C1765       C  0.80907472  0.50390716  0.18832506    -0.17100
C1766       C  0.68735438  0.49628656  0.19081999    -0.17100
C1767       C  0.68944947  0.50112791  0.31184929    -0.17100
C1768       C  0.81114397  0.50613313  0.30926322    -0.17100
H1769       H  0.78194523  0.46937668  0.13047562     0.15900
H1770       H  0.71552403  0.46586574  0.13173508     0.15900
H1771       H  0.78609118  0.47321634  0.36861991     0.15900
H1772       H  0.71956916  0.47143138  0.37037440     0.15900
H1773       H  0.86792983  0.53766586  0.21414243     0.14100
H1774       H  0.86925035  0.53848541  0.28065323     0.14100
H1775       H  0.62401830  0.51799431  0.21829542     0.14100
H1776       H  0.62539351  0.52159868  0.28471235     0.14100
H1777       H  0.74764078  0.51695294  0.22000492     0.27400
H1778       H  0.74879747  0.51973446  0.27980271     0.27400
N1779       N  0.74938292  0.69918248  0.49756933    -0.35400
N1780       N  0.69695670  0.75001767  0.49719793    -0.55900
N1781       N  0.74823832  0.80247392  0.49825062    -0.35400
N1782       N  0.80061526  0.75163620  0.49403138    -0.55900
C1783       C  0.72216311  0.67974858  0.49103816     0.28200
C1784       C  0.77705806  0.68058762  0.49050560     0.28200
C1785       C  0.72022418  0.82084068  0.49210640     0.28200
C1786       C  0.77499328  0.82160509  0.48956174     0.28200
C1787       C  0.67785480  0.72248456  0.50287125     0.36800
C1788       C  0.67747617  0.77693823  0.50459998     0.36800
C1789       C  0.82036551  0.72470148  0.50061860     0.36800
C1790       C  0.81967840  0.77917531  0.50002734     0.36800
C1791       C  0.73271889  0.64830877  0.47995646    -0.20700
C1792       C  0.76735409  0.64881377  0.47969917    -0.20700
C1793       C  0.72924722  0.85209389  0.47949687    -0.20700
C1794       C  0.76384293  0.85254485  0.47781720    -0.20700
C1795       C  0.64606487  0.73195778  0.51368589    -0.21700
C1796       C  0.64586403  0.76647237  0.51491078    -0.21700
C1797       C  0.85209670  0.73514976  0.51066650    -0.21700
C1798       C  0.85164890  0.76970021  0.51033641    -0.21700
C1799       C  0.68817584  0.68896656  0.49675331    -0.17100
C1800       C  0.81078597  0.69081870  0.49571919    -0.17100
C1801       C  0.80915674  0.81267667  0.49432476    -0.17100
C1802       C  0.68690777  0.81081034  0.49949100    -0.17100
H1803       H  0.71711480  0.62704557  0.47311994     0.15900
H1804       H  0.78355277  0.62802455  0.47264767     0.15900
H1805       H  0.71264192  0.87255064  0.47246728     0.15900
H1806       H  0.77905908  0.87343639  0.46932171     0.15900
H1807       H  0.62516596  0.71571484  0.51997314     0.14100
H1808       H  0.62470234  0.78207273  0.52215403     0.14100
H1809       H  0.87338288  0.71950403  0.51742414     0.14100
H1810       H  0.87250631  0.78596774  0.51683702     0.14100
H1811       H  0.74926865  0.72231158  0.50979412     0.27400
H1812       H  0.74911506  0.77989427  0.51138508     0.27400
C1813       C  0.85873513  0.89037065  0.02232463     0.24800
C1814       C  0.88512795  0.89002572  0.49322801    -0.23300
C1815       C  0.88556338  0.86417173  0.46901152     0.19700
C1816       C  0.86052081  0.83941014  0.46889216     0.24800
C1817       C  0.83510585  0.83970420  0.49348588    -0.23200
C1818       C  0.83415790  0.86503535  0.02219899     0.19700
F1819       F  0.81061496  0.86448870  0.04690832    -0.13200
F1820       F  0.85827958  0.91400746  0.04704901    -0.15500
F1821       F  0.86105232  0.81507063  0.44483872    -0.15500
F1822       F  0.90988287  0.86325724  0.44512912    -0.13200
C1823       C  0.86402653  0.61520537  0.02856766     0.24800
C1824       C  0.88737720  0.61401342  0.49688938    -0.23300
C1825       C  0.88574105  0.63715382  0.47024692     0.19700
C1826       C  0.86099194  0.66230067  0.46985302     0.24800
C1827       C  0.83746865  0.66454330  0.49611892    -0.23200
C1828       C  0.83879710  0.63985137  0.02824033     0.19700
F1829       F  0.81493625  0.63987417  0.05267795    -0.13200
F1830       F  0.86487694  0.59268828  0.05404576    -0.15500
F1831       F  0.85977089  0.68431098  0.44378040    -0.15500
F1832       F  0.90736739  0.63464117  0.44406549    -0.13200
C1833       C  0.60948856  0.86167632  0.47678496     0.24800
C1834       C  0.60999914  0.88691938  0.50157455    -0.23300
C1835       C  0.63550813  0.88682439  0.52610290     0.19700
C1836       C  0.66033021  0.86180864  0.52568901     0.24800
C1837       C  0.66022027  0.83699663  0.50042343    -0.23200
C1838       C  0.63452511  0.83698414  0.47611126     0.19700
F1839       F  0.63380712  0.81303665  0.45168778    -0.13200
F1840       F  0.58529578  0.86156743  0.45261466    -0.15500
F1841       F  0.68747115  0.86527818  0.04536589    -0.15500
F1842       F  0.63916723  0.91377763  0.04404771    -0.13200
C1843       C  0.61200490  0.63679051  0.47145382     0.24800
C1844       C  0.61220345  0.61166592  0.49632804    -0.23300
C1845       C  0.63745517  0.61194491  0.52104202     0.19700
C1846       C  0.66205777  0.63704368  0.52116905     0.24800
C1847       C  0.66203519  0.66211787  0.49631041    -0.23200
C1848       C  0.63683265  0.66180411  0.47139565     0.19700
F1849       F  0.63638237  0.68571974  0.44704209    -0.13200
F1850       F  0.58824954  0.63664355  0.44684480    -0.15500
F1851       F  0.69346932  0.62959018  0.04449570    -0.15500
F1852       F  0.64616509  0.58024917  0.04285715    -0.13200
C1853       C  0.86013665  0.52344310  0.38948906     0.24800
C1854       C  0.88921794  0.00525476  0.38440525    -0.23300
C1855       C  0.89112077  0.98346212  0.35654537     0.19700
C1856       C  0.86594986  0.98389432  0.33195538     0.24800
C1857       C  0.83835690  0.50574923  0.33505063    -0.23200
C1858       C  0.83528756  0.52497417  0.36463922     0.19700
F1859       F  0.80815811  0.54527381  0.36944612    -0.13200
F1860       F  0.85645628  0.54243618  0.41770916    -0.15500
F1861       F  0.86725647  0.96133578  0.30626048    -0.15500
F1862       F  0.91662418  0.96080882  0.35384591    -0.13200
C1863       C  0.61403356  0.97317295  0.36462592     0.24800
C1864       C  0.61534956  0.99750373  0.39028805    -0.23300
C1865       C  0.63968782  0.52458539  0.38975204     0.19700
C1866       C  0.66423609  0.52496278  0.36455273     0.24800
C1867       C  0.66393079  0.50045149  0.33898193    -0.23200
C1868       C  0.63893113  0.97194799  0.33986038     0.19700
F1869       F  0.63777066  0.94730660  0.31614735    -0.13200
F1870       F  0.58908721  0.94995608  0.36411993    -0.15500
F1871       F  0.68788425  0.54960194  0.36462365    -0.15500
F1872       F  0.64033691  0.54849446  0.41422111    -0.13200
C1873       C  0.62065047  0.96370327  0.12840871     0.24800
C1874       C  0.61253697  0.49651645  0.11313415    -0.23300
C1875       C  0.63149207  0.52554311  0.11984117     0.19700
C1876       C  0.65570046  0.52536396  0.14533303     0.24800
C1877       C  0.66137245  0.49608740  0.16418283    -0.23200
C1878       C  0.64527227  0.96164906  0.15355596     0.19700
F1879       F  0.65204476  0.93148139  0.16807660    -0.13200
F1880       F  0.60426726  0.93539725  0.11848220    -0.15500
F1881       F  0.67338932  0.55383765  0.15202357    -0.15500
F1882       F  0.62581788  0.55429761  0.10237156    -0.13200
C1883       C  0.89178310  0.98295612  0.14214739     0.24800
C1884       C  0.88724741  0.50025439  0.11289527    -0.23300
C1885       C  0.85712608  0.51802116  0.10693727     0.19700
C1886       C  0.83193790  0.51952216  0.13136537     0.24800
C1887       C  0.83577695  0.50229599  0.16197654    -0.23200
C1888       C  0.86609585  0.98194980  0.16608650     0.19700
F1889       F  0.87029576  0.96277389  0.19402129    -0.13200
F1890       F  0.92037341  0.96503283  0.14780670    -0.15500
F1891       F  0.80375520  0.53786953  0.12503287    -0.15500
F1892       F  0.85205743  0.53426366  0.07744777    -0.13200
C1893       C  0.52644802  0.60891730  0.35895513     0.24800
C1894       C  0.00432851  0.61270321  0.38662491    -0.23300
C1895       C  0.98547862  0.64256209  0.39008302     0.19700
C1896       C  0.98652072  0.66739852  0.36527245     0.24800
C1897       C  0.00708044  0.66329595  0.33683751    -0.23200
C1898       C  0.52874862  0.63422109  0.33460819     0.19700
F1899       F  0.55010338  0.62999507  0.30829987    -0.13200
F1900       F  0.54573612  0.58084706  0.35564554    -0.15500
F1901       F  0.96674185  0.69515147  0.36859804    -0.15500
F1902       F  0.96527542  0.64738871  0.41708197    -0.13200
C1903       C  0.98589913  0.85633536  0.39197964     0.24800
C1904       C  0.99989472  0.88822779  0.38532536    -0.23300
C1905       C  0.51613353  0.89426303  0.35382287     0.19700
C1906       C  0.51763100  0.86863957  0.32968374     0.24800
C1907       C  0.99993557  0.83713958  0.33545234    -0.23200
C1908       C  0.98512051  0.83144482  0.36707581     0.19700
F1909       F  0.96988013  0.80167177  0.37399976    -0.13200
F1910       F  0.97256117  0.84917611  0.42252843    -0.15500
F1911       F  0.53461217  0.87434021  0.30063993    -0.15500
F1912       F  0.53019075  0.92444962  0.34651595    -0.13200
C1913       C  0.01518466  0.89039949  0.14211480     0.24800
C1914       C  0.99698388  0.88680604  0.11189957    -0.23300
C1915       C  0.47842477  0.85755076  0.10719759     0.19700
C1916       C  0.47751891  0.83274911  0.13212356     0.24800
C1917       C  0.99447492  0.83625294  0.16173384    -0.23200
C1918       C  0.01460546  0.86498823  0.16635876     0.19700
F1919       F  0.53858369  0.86736150  0.19228167    -0.13200
F1920       F  0.53807295  0.91700236  0.14551315    -0.15500
F1921       F  0.95575610  0.80568000  0.12676063    -0.15500
F1922       F  0.95923880  0.85356736  0.07827626    -0.13200
C1923       C  0.97523059  0.63872045  0.11009253     0.24800
C1924       C  0.99814190  0.61176825  0.11198621    -0.23300
C1925       C  0.52338809  0.60995754  0.13837790     0.19700
C1926       C  0.52411097  0.63502027  0.16297064     0.24800
C1927       C  0.99776907  0.66151085  0.16215693    -0.23200
C1928       C  0.97456160  0.66306818  0.13547204     0.19700
F1929       F  0.95134467  0.68818407  0.13406710    -0.13200
F1930       F  0.95333973  0.64124511  0.08392387    -0.15500
F1931       F  0.54814286  0.63386962  0.18724716    -0.15500
F1932       F  0.54657851  0.58480168  0.13935072    -0.13200
N1933       N  0.49764726  0.74856263  0.69862687    -0.35400
N1934       N  0.49933494  0.80096466  0.74862049    -0.55900
N1935       N  0.50604985  0.75040733  0.80096715    -0.35400
N1936       N  0.50724430  0.69770673  0.75093031    -0.55900
C1937       C  0.50441248  0.77593845  0.67952815     0.28200
C1938       C  0.50703119  0.72113189  0.68078076     0.28200
C1939       C  0.51384092  0.77898135  0.81780492     0.28200
C1940       C  0.51808735  0.72420800  0.81910197     0.28200
C1941       C  0.48824394  0.81846568  0.72164288     0.36800
C1942       C  0.49138642  0.81939994  0.77608201     0.36800
C1943       C  0.49800315  0.67805386  0.72468825     0.36800
C1944       C  0.50314791  0.67898416  0.77901482     0.36800
C1945       C  0.51887296  0.76571133  0.64944358    -0.20700
C1946       C  0.52022942  0.73106578  0.65011494    -0.20700
C1947       C  0.53162720  0.77089357  0.84677349    -0.20700
C1948       C  0.53416868  0.73624453  0.84766456    -0.20700
C1949       C  0.47267802  0.84795710  0.73200661    -0.21700
C1950       C  0.47461319  0.84853049  0.76655194    -0.21700
C1951       C  0.48800450  0.64667885  0.73611582    -0.21700
C1952       C  0.49121337  0.64727997  0.77057269    -0.21700
C1953       C  0.49544697  0.80946875  0.68795649    -0.17100
C1954       C  0.50125950  0.68744377  0.69052720    -0.17100
C1955       C  0.51183560  0.68986512  0.81183442    -0.17100
C1956       C  0.50220062  0.81158843  0.80909017    -0.17100
H1957       H  0.52706976  0.78145777  0.62886363     0.15900
H1958       H  0.52956195  0.71499073  0.63016515     0.15900
H1959       H  0.54102247  0.78809996  0.86572453     0.15900
H1960       H  0.54587150  0.72155352  0.86739184     0.15900
H1961       H  0.46173572  0.86732988  0.71629288     0.14100
H1962       H  0.46539730  0.86847228  0.78271124     0.14100
H1963       H  0.47955773  0.62549488  0.72117470     0.14100
H1964       H  0.48551781  0.62668856  0.78739657     0.14100
H1965       H  0.48365204  0.74820661  0.72076247     0.27400
H1966       H  0.48944384  0.74869541  0.78075066     0.27400
O1967       O  0.99851869  0.59646580  0.55413323    -0.78900
O1968       O  0.99714399  0.90393805  0.55326007    -0.80400
O1969       O  0.94283084  0.49954437  0.59399278    -0.77500
O1970       O  0.55440404  0.49744102  0.59539250    -0.75800
O1971       O  0.59555440  0.49855307  0.55524200    -0.77600
O1972       O  0.90205716  0.00111335  0.55190101    -0.78600
O1973       O  0.99823794  0.94418110  0.59449246    -0.79900
O1974       O  0.00015426  0.55563841  0.59477161    -0.80200
Eu1975     Eu  0.99899664  0.50003235  0.56742930     2.39200
O1976       O  0.53227240  0.96567945  0.53341473    -0.86100
O1977       O  0.96517186  0.53485547  0.53318467    -0.91300
C1978       C  0.99941078  0.58665671  0.58508177     1.03400
C1979       C  0.99758980  0.91325217  0.58445944     1.03200
C1980       C  0.91182535  0.49983759  0.58399934     1.03200
C1981       C  0.58556351  0.49742327  0.58606020     1.01000
H1982       H  0.94942803  0.95228085  0.54542733     0.30800
O1983       O  0.96397532  0.96645657  0.53205437    -1.00100
H1984       H  0.54778883  0.54815886  0.54785668     0.30800
O1985       O  0.53363338  0.53412559  0.53373176    -1.02600
O1986       O  0.99841312  0.90553284  0.94328633    -0.79900
O1987       O  0.00355709  0.59660867  0.94643305    -0.79400
O1988       O  0.90223591  0.94757565  0.00004576    -0.77800
O1989       O  0.59414723  0.94201088  0.00078322    -0.81200
O1990       O  0.59723116  0.55321340  0.00190580    -0.79000
O1991       O  0.90446573  0.55690603  0.00359538    -0.77700
O1992       O  0.94592603  0.00336825  0.90398528    -0.79200
O1993       O  0.55697772  0.00057379  0.90512348    -0.81100
O1994       O  0.90476779  0.00486348  0.94425852    -0.77900
O1995       O  0.59751313  0.00121471  0.94621262    -0.80500
O1996       O  0.94208148  0.90589275  0.99754249    -0.76300
O1997       O  0.94582223  0.59687713  0.00090805    -0.76300
O1998       O  0.55684629  0.59444057  0.00090973    -0.75900
O1999       O  0.55247642  0.90225006  0.99848836    -0.79400
O2000       O  0.00064294  0.94674021  0.90326585    -0.78900
O2001       O  0.00592423  0.55632353  0.90526835    -0.77200
Eu2002     Eu  0.99832010  0.93214017  0.99927786     2.39800
Eu2003     Eu  0.00080889  0.56786980  0.00077563     2.39600
Eu2004     Eu  0.93207672  0.00216614  0.99999415     2.38400
Eu2005     Eu  0.56912208  0.99868507  0.00110877     2.39900
Eu2006     Eu  0.00118595  0.00172437  0.93216152     2.39800
O2007       O  0.53525288  0.53348731  0.96712373    -0.91600
O2008       O  0.96552406  0.96776194  0.96518136    -0.90500
C2009       C  0.99951248  0.91555117  0.91241065     1.03600
C2010       C  0.00604254  0.58728420  0.91544981     1.02300
C2011       C  0.91126048  0.91630530  0.99860854     1.01700
C2012       C  0.58362117  0.91126916  0.99970212     1.03700
C2013       C  0.58774553  0.58431093  0.00140427     1.02600
C2014       C  0.91469493  0.58773286  0.00276754     1.01500
C2015       C  0.91480450  0.00466819  0.91333758     1.01500
C2016       C  0.58790360  0.00102965  0.91517812     1.04100
H2017       H  0.95243007  0.54970693  0.95179136     0.31500
O2018       O  0.96614353  0.53513750  0.96585960    -1.03800
H2019       H  0.54790616  0.95198388  0.95187712     0.33500
O2020       O  0.53408290  0.96611121  0.96602291    -1.06300
N2021       N  0.74878417  0.49515829  0.69904454    -0.35400
N2022       N  0.80135650  0.49749778  0.74942360    -0.55900
N2023       N  0.75042988  0.50008066  0.80152451    -0.35400
N2024       N  0.69776077  0.49422323  0.75102438    -0.55900
C2025       C  0.77622108  0.48636638  0.68089413     0.28200
C2026       C  0.72142822  0.48407128  0.68204944     0.28200
C2027       C  0.77827107  0.49273898  0.81973610     0.28200
C2028       C  0.72346008  0.49196347  0.82054550     0.28200
C2029       C  0.81945805  0.50485035  0.72161978     0.36800
C2030       C  0.82053061  0.50628438  0.77615848     0.36800
C2031       C  0.67841833  0.50044191  0.72374257     0.36800
C2032       C  0.67939250  0.50342323  0.77809986     0.36800
C2033       C  0.76624016  0.46900520  0.65227297    -0.20700
C2034       C  0.73159671  0.46747133  0.65304927    -0.20700
C2035       C  0.76885966  0.47956377  0.85060714    -0.20700
C2036       C  0.73422496  0.47914235  0.85114066    -0.20700
C2037       C  0.85015083  0.51872555  0.73074852    -0.21700
C2038       C  0.85091954  0.51940970  0.76532989    -0.21700
C2039       C  0.64768901  0.51385984  0.73354550    -0.21700
C2040       C  0.64824689  0.51555910  0.76805361    -0.21700
C2041       C  0.80964450  0.49610322  0.68847513    -0.17100
C2042       C  0.68772320  0.49197405  0.69046043    -0.17100
C2043       C  0.68956094  0.49829691  0.81174116    -0.17100
C2044       C  0.81170079  0.50019790  0.81006988    -0.17100
H2045       H  0.78222304  0.45898370  0.63261672     0.15900
H2046       H  0.71565666  0.45617662  0.63403646     0.15900
H2047       H  0.78522116  0.47156268  0.87086788     0.15900
H2048       H  0.71874854  0.47075449  0.87186229     0.15900
H2049       H  0.87016400  0.52692433  0.71427324     0.14100
H2050       H  0.87157785  0.52828795  0.78072568     0.14100
H2051       H  0.62692992  0.52143853  0.71761106     0.14100
H2052       H  0.62800792  0.52452912  0.78393636     0.14100
H2053       H  0.74852995  0.51171476  0.71940880     0.27400
H2054       H  0.74977196  0.51361829  0.77914188     0.27400
N2055       N  0.75053224  0.69854820  0.00392852    -0.35400
N2056       N  0.69787646  0.74859141  0.00250753    -0.55900
N2057       N  0.74824516  0.80133574  0.00128140    -0.35400
N2058       N  0.80102138  0.75120242  0.99953029    -0.55900
C2059       C  0.72354157  0.67953574  0.99568956     0.28200
C2060       C  0.77826597  0.68069133  0.99562712     0.28200
C2061       C  0.72003787  0.81863587  0.99318284     0.28200
C2062       C  0.77486506  0.82020457  0.99167693     0.28200
C2063       C  0.67976846  0.72110512  0.01067532     0.36800
C2064       C  0.67848047  0.77547184  0.00998456     0.36800
C2065       C  0.82072783  0.72463804  0.00755421     0.36800
C2066       C  0.81967868  0.77906759  0.00524214     0.36800
C2067       C  0.73427190  0.64932276  0.98172317    -0.20700
C2068       C  0.76891293  0.64995698  0.98192060    -0.20700
C2069       C  0.72881452  0.84883712  0.97809468    -0.20700
C2070       C  0.76348544  0.84986079  0.97722851    -0.20700
C2071       C  0.64882881  0.73051146  0.02377748    -0.21700
C2072       C  0.64800340  0.76508525  0.02333771    -0.21700
C2073       C  0.85202793  0.73562384  0.01832954    -0.21700
C2074       C  0.85137969  0.77018158  0.01681507    -0.21700
C2075       C  0.68977014  0.68786787  0.00313733    -0.17100
C2076       C  0.81163621  0.69066480  0.00245807    -0.17100
C2077       C  0.80898621  0.81221933  0.99806913    -0.17100
C2078       C  0.68685887  0.80888133  0.00162586    -0.17100
H2079       H  0.71879088  0.62870096  0.97291404     0.15900
H2080       H  0.78534418  0.62997568  0.97325749     0.15900
H2081       H  0.71200048  0.86834155  0.96913694     0.15900
H2082       H  0.77860060  0.87025508  0.96745448     0.15900
H2083       H  0.62872577  0.71418303  0.03209419     0.14100
H2084       H  0.62710946  0.78073296  0.03122731     0.14100
H2085       H  0.87322028  0.72032100  0.02608479     0.14100
H2086       H  0.87193749  0.78683369  0.02329349     0.14100
H2087       H  0.75022929  0.72053908  0.01822766     0.27400
H2088       H  0.74929235  0.77994203  0.01631250     0.27400
C2089       C  0.85948260  0.89055571  0.51751217     0.24800
C2090       C  0.88446317  0.89036868  0.99803432    -0.23300
C2091       C  0.88498553  0.86472244  0.97358934     0.19700
C2092       C  0.86015044  0.83974573  0.97313222     0.24800
C2093       C  0.83454339  0.83966849  0.99747125    -0.23200
C2094       C  0.83487296  0.86541386  0.51784499     0.19700
F2095       F  0.81120281  0.86565851  0.54243343    -0.13200
F2096       F  0.85911192  0.91467171  0.54178164    -0.15500
F2097       F  0.86121860  0.81542456  0.94908360    -0.15500
F2098       F  0.90934153  0.86417197  0.94978684    -0.13200
C2099       C  0.86393863  0.61644386  0.52318684     0.24800
C2100       C  0.88881088  0.61450362  0.00337806    -0.23300
C2101       C  0.88823981  0.63920715  0.97817403     0.19700
C2102       C  0.86321047  0.66400033  0.97794080     0.24800
C2103       C  0.83834169  0.66448986  0.00296070    -0.23200
C2104       C  0.83934423  0.64170290  0.52294592     0.19700
F2105       F  0.81765161  0.64434926  0.54917040    -0.13200
F2106       F  0.86547167  0.59489345  0.54954887    -0.15500
F2107       F  0.86273381  0.68716483  0.95288515    -0.15500
F2108       F  0.91123057  0.63857032  0.95306773    -0.13200
C2109       C  0.60671810  0.85613548  0.97931089     0.24800
C2110       C  0.60930940  0.88452179  0.00039934    -0.23300
C2111       C  0.63683916  0.88734492  0.02243744     0.19700
C2112       C  0.66167408  0.86248545  0.02311029     0.24800
C2113       C  0.65976817  0.83470108  0.00130977    -0.23200
C2114       C  0.63198680  0.83154434  0.97952417     0.19700
F2115       F  0.62951966  0.80477404  0.95833409    -0.13200
F2116       F  0.58025804  0.85267415  0.95790626    -0.15500
F2117       F  0.68419764  0.86141673  0.55016881    -0.15500
F2118       F  0.63584647  0.91043267  0.55088336    -0.13200
C2119       C  0.61116068  0.63862794  0.98038573     0.24800
C2120       C  0.61417368  0.61034201  0.00137917    -0.23300
C2121       C  0.64250811  0.60729504  0.02240266     0.19700
C2122       C  0.66691952  0.63257531  0.02314441     0.24800
C2123       C  0.66382004  0.66093453  0.00228708    -0.23200
C2124       C  0.63590843  0.66358298  0.98064104     0.19700
F2125       F  0.63274499  0.69031308  0.95961987    -0.13200
F2126       F  0.58470905  0.64161655  0.95891491    -0.15500
F2127       F  0.68561484  0.63726835  0.54593209    -0.15500
F2128       F  0.63752792  0.58854087  0.54581166    -0.13200
C2129       C  0.86032745  0.52284561  0.88958164     0.24800
C2130       C  0.88879639  0.00590480  0.88657221    -0.23300
C2131       C  0.89198728  0.98564909  0.85766809     0.19700
C2132       C  0.86708708  0.98598228  0.83271498     0.24800
C2133       C  0.83847104  0.50096894  0.83651597    -0.23200
C2134       C  0.83567804  0.52277973  0.86437322     0.19700
F2135       F  0.80898714  0.54400782  0.86717623    -0.13200
F2136       F  0.85720401  0.54451680  0.91588167    -0.15500
F2137       F  0.86992038  0.96454351  0.80621694    -0.15500
F2138       F  0.91856342  0.96437008  0.85423728    -0.13200
C2139       C  0.61338754  0.97595590  0.86373582     0.24800
C2140       C  0.61422212  0.00058429  0.88909121    -0.23300
C2141       C  0.64085904  0.52096122  0.89090832     0.19700
C2142       C  0.66557096  0.52095213  0.86585886     0.24800
C2143       C  0.66351291  0.49830820  0.83863989    -0.23200
C2144       C  0.63808966  0.97512554  0.83880077     0.19700
F2145       F  0.63674968  0.95077158  0.81480268    -0.13200
F2146       F  0.58913569  0.95201763  0.86374617    -0.15500
F2147       F  0.69130148  0.54331581  0.86792759    -0.15500
F2148       F  0.64287597  0.54365043  0.91644242    -0.13200
C2149       C  0.61348970  0.96591213  0.63465532     0.24800
C2150       C  0.61178984  0.49575822  0.61253264    -0.23300
C2151       C  0.64259898  0.51266368  0.60859225     0.19700
C2152       C  0.66702901  0.51153101  0.63390780     0.24800
C2153       C  0.66174300  0.49243100  0.66322537    -0.23200
C2154       C  0.63873973  0.96476513  0.65935054     0.19700
F2155       F  0.64152971  0.93720583  0.67930498    -0.13200
F2156       F  0.59276355  0.93911788  0.63053312    -0.15500
F2157       F  0.69570187  0.52965170  0.63000013    -0.15500
F2158       F  0.64876088  0.53115331  0.58064737    -0.13200
C2159       C  0.88896497  0.98014183  0.63860015     0.24800
C2160       C  0.88519193  0.49819731  0.61008205    -0.23300
C2161       C  0.85455666  0.51565102  0.60607770     0.19700
C2162       C  0.83019638  0.51518605  0.63153681     0.24800
C2163       C  0.83536929  0.49617941  0.66097248    -0.23200
C2164       C  0.86445236  0.98059474  0.66380336     0.19700
F2165       F  0.86900410  0.96127152  0.69157223    -0.13200
F2166       F  0.91668375  0.96051815  0.64279575    -0.15500
F2167       F  0.80172774  0.53376753  0.62765256    -0.15500
F2168       F  0.84842121  0.53377821  0.57782845    -0.13200
C2169       C  0.53211713  0.61116756  0.86291036     0.24800
C2170       C  0.00898530  0.61418960  0.88987928    -0.23300
C2171       C  0.98916055  0.64346618  0.89239576     0.19700
C2172       C  0.99051109  0.66824851  0.86748566     0.24800
C2173       C  0.01229168  0.66465422  0.83983797    -0.23200
C2174       C  0.53396650  0.63630034  0.83824571     0.19700
F2175       F  0.55615168  0.63269937  0.81255262    -0.13200
F2176       F  0.55282220  0.58399884  0.86071818    -0.15500
F2177       F  0.96964227  0.69527614  0.86979595    -0.15500
F2178       F  0.96745316  0.64752485  0.91836923    -0.13200
C2179       C  0.98373603  0.85809200  0.89090185     0.24800
C2180       C  0.99971583  0.88927799  0.88568194    -0.23300
C2181       C  0.51610451  0.89493583  0.85457297     0.19700
C2182       C  0.51796689  0.86934918  0.83036834     0.24800
C2183       C  0.00148589  0.83836308  0.83564562    -0.23200
C2184       C  0.98378190  0.83334609  0.86580607     0.19700
F2185       F  0.96619769  0.80450924  0.87085383    -0.13200
F2186       F  0.96732750  0.85172055  0.92005254    -0.15500
F2187       F  0.53603314  0.87472023  0.80191948    -0.15500
F2188       F  0.53091815  0.92490243  0.84791368    -0.13200
C2189       C  0.01319910  0.89173093  0.64188736     0.24800
C2190       C  0.99701985  0.88667136  0.61073896    -0.23300
C2191       C  0.48016043  0.85614195  0.60515761     0.19700
C2192       C  0.47834165  0.83173176  0.63053186     0.24800
C2193       C  0.99519727  0.83635618  0.66141751    -0.23200
C2194       C  0.01319345  0.86650652  0.66641067     0.19700
F2195       F  0.53184443  0.87114817  0.69482260    -0.13200
F2196       F  0.53034678  0.92063845  0.64836962    -0.15500
F2197       F  0.95920981  0.80379267  0.62521438    -0.15500
F2198       F  0.96378646  0.85037400  0.57561049    -0.13200
C2199       C  0.97692380  0.63968450  0.61099785     0.24800
C2200       C  0.99992457  0.61274583  0.61157917    -0.23300
C2201       C  0.52327172  0.61028898  0.63832418     0.19700
C2202       C  0.52367409  0.63460112  0.66381568     0.24800
C2203       C  0.00004869  0.66116714  0.66370624    -0.23200
C2204       C  0.97661605  0.66340626  0.63714734     0.19700
F2205       F  0.95345133  0.68860068  0.63658120    -0.13200
F2206       F  0.95431330  0.64259905  0.58550205    -0.15500
F2207       F  0.54762380  0.63283101  0.68813866    -0.15500
F2208       F  0.54655490  0.58521844  0.63883675    -0.13200
loop_ 
_geom_bond_atom_site_label_1 
_geom_bond_atom_site_label_2 
_geom_bond_distance 
_geom_bond_site_symmetry_2 
_ccdc_geom_bond_type 
N1            C6   1.350   1_655  A
N1            C5   1.352   1_655  A
N1           H33   1.041       .  S
N2            C9   1.349       .  A
N2           C10   1.348       .  A
N3            C8   1.350       .  A
N3            C7   1.350       .  A
N3           H34   1.041   1_455  S
N4           C11   1.347   1_455  A
N4           C12   1.349   1_455  A
C5           C13   1.387       .  A
C5           C21   1.413   1_455  A
C6           C22   1.409   1_455  A
C6           C14   1.386       .  A
C7           C15   1.388       .  A
C7           C24   1.411   1_455  A
C8           C23   1.410       .  A
C8           C16   1.386       .  A
C9           C21   1.410       .  A
C9           C17   1.386       .  A
C10          C24   1.411       .  A
C10          C18   1.387       .  A
C11          C19   1.386       .  A
C11          C22   1.408       .  A
C12          C20   1.387       .  A
C12          C23   1.410   1_655  A
C13          C14   1.376       .  A
C13          H25   1.082       .  S
C14          H26   1.082       .  S
C15          C16   1.376       .  A
C15          H27   1.082       .  S
C16          H28   1.082       .  S
C17          C18   1.376       .  A
C17          H29   1.082       .  S
C18          H30   1.082       .  S
C19          C20   1.375       .  A
C19          H31   1.082       .  S
C20          H32   1.082       .  S
C21        C1365   1.490       .  S
C22        C1375   1.477       .  S
C23        C1345   1.484       .  S
C24        C1355   1.484       .  S
O35          C46   1.287       .  A
O35        Eu347   2.435       .  S
O36          C47   1.291       .  A
O36        Eu346   2.460   1_554  S
O37          C48   1.292       .  A
O37         Eu43   2.458   1_545  S
O38          C49   1.291       .  A
O38       Eu1147   2.463       .  S
O39          C49   1.290       .  A
O39        Eu901   2.461       .  S
O40         C600   1.291       .  A
O40        Eu348   2.459       .  S
O41          C47   1.291       .  A
O41        Eu595   2.457       .  S
O42          C46   1.291       .  A
O42         Eu43   2.461   1_545  S
Eu43       O1142   2.465       .  S
Eu43        O593   2.452       .  S
Eu43         O45   2.354   1_565  S
Eu43       O1157   2.346   1_565  S
Eu43       O1700   2.352       .  S
Eu43        O603   2.359       .  S
O44       Eu1699   2.349       .  S
O44        Eu349   2.350       .  S
O44       Eu1450   2.352   1_454  S
O45        Eu347   2.350       .  S
O45        Eu900   2.355   1_554  S
C46         C268   1.462       .  S
C47         C258   1.478       .  S
C48         C228   1.479       .  S
C48         O592   1.290       .  A
C49         C218   1.470       .  S
H50          O51   0.968       .  S
O51        Eu595   2.350       .  S
O51        Eu348   2.355       .  S
O51        Eu346   2.350   1_554  S
H52          O53   0.970       .  S
O53       Eu1147   2.348   1_545  S
O53       Eu1451   2.354       .  S
O53        Eu901   2.350   1_545  S
O54          C77   1.291       .  A
O54         Eu70   2.460       .  S
O55          C78   1.291       .  A
O55         Eu71   2.456       .  S
O56          C79   1.290       .  A
O56         Eu72   2.456       .  S
O57          C80   1.293       .  A
O57         Eu73   2.471       .  S
O58          C81   1.290       .  A
O58        Eu625   2.455   1_545  S
O59          C82   1.289       .  A
O59        Eu624   2.453       .  S
O60          C83   1.290       .  A
O60         Eu74   2.452       .  S
O61          C84   1.291       .  A
O61       Eu1178   2.460       .  S
O62          C83   1.292       .  A
O62         Eu72   2.459       .  S
O63          C84   1.289       .  A
O63         Eu73   2.452       .  S
O64          C79   1.291       .  A
O64         Eu70   2.460       .  S
O65          C82   1.290       .  A
O65         Eu71   2.453       .  S
O66          C81   1.291       .  A
O66       Eu1175   2.459       .  S
O67          C80   1.290       .  A
O67       Eu1174   2.451   1_455  S
O68          C77   1.291       .  A
O68         Eu74   2.458       .  S
O69          C78   1.292       .  A
O69        Eu626   2.462       .  S
Eu70        O312   2.469       .  S
Eu70       O1171   2.451       .  S
Eu70         O76   2.353       .  S
Eu70       O1424   2.356       .  S
Eu70        O327   2.347       .  S
Eu70       O1192   2.358       .  S
Eu71        O311   2.469       .  S
Eu71       O1170   2.460       .  S
Eu71         O86   2.355       .  S
Eu71        O321   2.351       .  S
Eu71       O1433   2.361       .  S
Eu71       O1179   2.351       .  S
Eu72        O316   2.458       .  S
Eu72        O611   2.462       .  S
Eu72         O76   2.359       .  S
Eu72        O873   2.353       .  S
Eu72        O327   2.350       .  S
Eu72        O638   2.351       .  S
Eu73        O867   2.449       .  S
Eu73        O610   2.464       .  S
Eu73         O88   2.356       .  S
Eu73        O320   2.351       .  S
Eu73        O881   2.355       .  S
Eu73        O627   2.349       .  S
Eu74       O1165   2.459       .  S
Eu74        O621   2.469       .  S
Eu74         O76   2.358       .  S
Eu74       O1731   2.344       .  S
Eu74        O638   2.358       .  S
Eu74       O1192   2.354       .  S
O75       Eu1175   2.350       .  S
O75        Eu625   2.347   1_545  S
O75       Eu1730   2.351       .  S
C77         C248   1.482       .  S
C78         C238   1.476       .  S
C79         C158   1.472       .  S
C80         C178   1.474       .  S
C81         C188   1.476       .  S
C82         C168   1.465       .  S
C83         C198   1.477       .  S
C84         C208   1.471       .  S
H85          O86   0.977       .  S
O86        Eu624   2.357       .  S
O86        Eu626   2.359       .  S
H87          O88   0.965       .  S
O88       Eu1174   2.358   1_455  S
O88       Eu1178   2.355       .  S
N89          C94   1.350       .  A
N89          C93   1.353       .  A
N89         H121   1.040   1_565  S
N90          C97   1.349       .  A
N90          C98   1.349       .  A
N91          C96   1.352   1_545  A
N91          C95   1.351   1_545  A
N91         H122   1.041       .  S
N92          C99   1.351       .  A
N92         C100   1.352   1_565  A
C93         C101   1.388       .  A
C93         C109   1.416   1_565  A
C94         C110   1.410       .  A
C94         C102   1.386       .  A
C95         C103   1.387       .  A
C95         C112   1.412   1_565  A
C96         C111   1.412       .  A
C96         C104   1.386       .  A
C97         C109   1.413       .  A
C97         C105   1.387       .  A
C98         C112   1.409       .  A
C98         C106   1.385       .  A
C99         C107   1.386   1_565  A
C99         C110   1.411       .  A
C100        C108   1.386       .  A
C100        C111   1.414   1_545  A
C101        C102   1.379       .  A
C101        H113   1.082       .  S
C102        H114   1.082       .  S
C103        C104   1.376       .  A
C103        H115   1.082       .  S
C104        H116   1.082       .  S
C105        C106   1.374       .  A
C105        H117   1.082       .  S
C106        H118   1.082       .  S
C107        C108   1.374       .  A
C107        H119   1.082       .  S
C108        H120   1.082       .  S
C109        C231   1.491       .  S
C110        C221   1.481       .  S
C111        C211   1.492       .  S
C112        C201   1.485       .  S
N123        C128   1.351       .  A
N123        C127   1.352       .  A
N123        H155   1.039       .  S
N124        C131   1.350       .  A
N124        C132   1.351       .  A
N125        C130   1.352       .  A
N125        C129   1.352       .  A
N125        H156   1.040       .  S
N126        C133   1.350       .  A
N126        C134   1.350       .  A
C127        C135   1.387       .  A
C127        C143   1.414       .  A
C128        C144   1.411       .  A
C128        C136   1.387       .  A
C129        C137   1.387       .  A
C129        C146   1.413       .  A
C130        C145   1.413       .  A
C130        C138   1.387       .  A
C131        C143   1.412       .  A
C131        C139   1.386       .  A
C132        C146   1.410       .  A
C132        C140   1.385       .  A
C133        C141   1.386       .  A
C133        C144   1.409       .  A
C134        C142   1.387       .  A
C134        C145   1.412       .  A
C135        C136   1.375       .  A
C135        H147   1.082       .  S
C136        H148   1.083       .  S
C137        C138   1.376       .  A
C137        H149   1.082       .  S
C138        H150   1.082       .  S
C139        C140   1.371       .  A
C139        H151   1.082       .  S
C140        H152   1.082       .  S
C141        C142   1.372       .  A
C141        H153   1.082       .  S
C142        H154   1.082       .  S
C143        C191   1.489       .  S
C144        C171   1.478       .  S
C145        C161   1.485       .  S
C146        C181   1.486       .  S
C157        C162   1.399       .  A
C157        C434   1.405   1_554  A
C157        F164   1.358       .  S
C158        C159   1.403       .  A
C158        C433   1.406       .  A
C159        C160   1.395       .  A
C159        F166   1.353       .  S
C160        C161   1.404       .  A
C160        F165   1.358       .  S
C161        C438   1.405       .  A
C162        C437   1.406   1_554  A
C162        F163   1.358       .  S
C167        C172   1.398       .  A
C167        C444   1.403       .  A
C167        F174   1.356       .  S
C168        C169   1.403       .  A
C168        C443   1.403       .  A
C169        C170   1.397       .  A
C169        F176   1.356       .  S
C170        C171   1.404       .  A
C170        F175   1.358       .  S
C171        C448   1.403       .  A
C172        C447   1.404       .  A
C172        F173   1.358       .  S
C177        C178   1.407       .  A
C177        C182   1.398       .  A
C177        F184   1.358       .  S
C178        C179   1.405       .  A
C179        C180   1.398       .  A
C179        F462   1.358       .  S
C180        C181   1.405       .  A
C180        F461   1.358       .  S
C181        C182   1.406       .  A
C182        F183   1.358       .  S
F185        C456   1.358       .  S
F186        C455   1.358       .  S
C187        C188   1.406       .  A
C187        C192   1.399       .  A
C187        F194   1.358       .  S
C188        C189   1.405       .  A
C189        C190   1.396       .  A
C189        F472   1.354       .  S
C190        C191   1.405       .  A
C190        F471   1.358       .  S
C191        C192   1.407       .  A
C192        F193   1.358       .  S
F195        C466   1.358       .  S
F196        C465   1.357       .  S
C197        C202   1.398       .  A
C197        C750   1.407       .  A
C197        F204   1.358       .  S
C198        C199   1.407       .  A
C198        C749   1.407       .  A
C199        C200   1.398       .  A
C199        F206   1.358       .  S
C200        C753   1.407       .  A
C200        F205   1.358       .  S
C201        C202   1.405       .  A
C201        C752   1.405   1_545  A
C202        F203   1.358       .  S
C207        C208   1.403       .  A
C207        C212   1.394       .  A
C207        F214   1.352       .  S
C208        C761   1.405       .  A
C209        C210   1.401       .  A
C209        C760   1.406   1_545  A
C209        F216   1.358       .  S
C210        C211   1.409   1_545  A
C210        F215   1.358       .  S
C211        C764   1.406       .  A
C212        C763   1.403       .  A
C212        F213   1.358       .  S
C217        C222   1.399       .  A
C217        C770   1.404       .  A
C217        F224   1.357       .  S
C218        C219   1.404   1_565  A
C218        C769   1.404       .  A
C219        C220   1.399       .  A
C219        F226   1.357       .  S
C220        C221   1.404   1_545  A
C220        F225   1.358       .  S
C221        C774   1.404       .  A
C222        C773   1.404       .  A
C222        F223   1.358       .  S
C227        C232   1.400       .  A
C227        C780   1.408       .  A
C227        F234   1.358       .  S
C228        C229   1.408       .  A
C228        C779   1.407   1_545  A
C229        C230   1.398       .  A
C229        F236   1.357       .  S
C230        C231   1.406       .  A
C230        F235   1.358       .  S
C231        C784   1.407   1_545  A
C232        C783   1.408       .  A
C232        F233   1.358       .  S
C237        C242   1.399       .  A
C237       C1342   1.407       .  A
C237        F244   1.358       .  S
C238        C239   1.406       .  A
C238       C1341   1.407       .  A
C239        C240   1.396       .  A
C239        F246   1.356       .  S
C240        C241   1.405       .  A
C240        F245   1.358       .  S
C241       C1346   1.405       .  A
C241       C1127   1.485       .  S
C242       C1345   1.405       .  A
C242        F243   1.358       .  S
C247        C248   1.406       .  A
C247        C252   1.396       .  A
C247        F254   1.353       .  S
C248       C1353   1.407       .  A
C249        C250   1.396       .  A
C249       C1352   1.407   1_455  A
C249        F256   1.353       .  S
C250       C1355   1.404   1_455  A
C250        F255   1.358       .  S
C251        C252   1.404       .  A
C251       C1354   1.404       .  A
C251       C1128   1.485       .  S
C252        F253   1.358       .  S
C257        C258   1.407       .  A
C257        C262   1.397       .  A
C257       F1368   1.357       .  S
C258       C1363   1.408       .  A
C259        C260   1.400       .  A
C259       C1362   1.408       .  A
C259       F1370   1.358       .  S
C260       C1365   1.407       .  A
C260       F1369   1.358       .  S
C261        C262   1.406       .  A
C261       C1364   1.407       .  A
C261       C1125   1.490       .  S
C262       F1367   1.358       .  S
F263       C1366   1.358       .  S
F264       C1361   1.357       .  S
F265       C1364   1.358       .  S
F266       C1363   1.358       .  S
C267        C268   1.404       .  A
C267        C272   1.395       .  A
C267        F274   1.359       .  S
C268       C1373   1.403       .  A
C269        C270   1.396       .  A
C269       C1372   1.403       .  A
C269        F276   1.358       .  S
C270       C1375   1.404   1_455  A
C270        F275   1.358       .  S
C271        C272   1.404       .  A
C271       C1374   1.404       .  A
C271       C1126   1.477       .  S
C272        F273   1.358       .  S
N277        C282   1.351   1_655  A
N277        C281   1.355       .  A
N277        H309   1.042       .  S
N278        C285   1.350       .  A
N278        C286   1.350       .  A
N279        C284   1.351       .  A
N279        C283   1.350       .  A
N279        H310   1.041   1_455  S
N280        C287   1.351   1_455  A
N280        C288   1.353   1_455  A
C281        C289   1.388   1_655  A
C281        C297   1.417       .  A
C282        C298   1.413   1_455  A
C282        C290   1.386       .  A
C283        C291   1.388       .  A
C283        C300   1.414   1_455  A
C284        C299   1.411       .  A
C284        C292   1.386       .  A
C285        C297   1.414       .  A
C285        C293   1.386       .  A
C286        C300   1.414       .  A
C286        C294   1.387       .  A
C287        C295   1.386       .  A
C287        C298   1.414       .  A
C288        C296   1.385       .  A
C288        C299   1.414   1_655  A
C289        C290   1.377       .  A
C289        H301   1.082       .  S
C290        H302   1.082       .  S
C291        C292   1.378       .  A
C291        H303   1.082       .  S
C292        H304   1.082       .  S
C293        C294   1.375       .  A
C293        H305   1.082       .  S
C294        H306   1.082       .  S
C295        C296   1.376       .  A
C295        H307   1.082       .  S
C296        H308   1.082       .  S
C297       C1641   1.500       .  S
C298       C1651   1.492       .  S
C299       C1621   1.492       .  S
C300       C1631   1.489       .  S
O311        C322   1.293       .  A
O312        C323   1.293       .  A
O313        C324   1.292       .  A
O313       Eu319   2.462       .  S
O314        C325   1.292       .  A
O314      Eu1423   2.471   1_455  S
O315        C325   1.289       .  A
O315       Eu625   2.450       .  S
O316        C876   1.291       .  A
O317        C323   1.293       .  A
O317       Eu871   2.466       .  S
O318        C322   1.291       .  A
O318       Eu319   2.456   1_545  S
Eu319      O1418   2.471       .  S
Eu319       O869   2.454       .  S
Eu319      O1433   2.361   1_565  S
Eu319       O321   2.354   1_565  S
Eu319      O1976   2.343       .  S
Eu319       O879   2.357       .  S
O320      Eu1975   2.350   1_455  S
O320      Eu1174   2.356   1_455  S
O321       Eu624   2.349       .  S
C322        C544   1.476       .  S
C323        C534   1.488       .  S
C324        C504   1.481       .  S
C324        O868   1.291   1_565  A
C325        C494   1.474       .  S
H326        O327   0.968       .  S
O327       Eu871   2.349       .  S
H328        O329   0.970       .  S
O329      Eu1423   2.360   1_445  S
O329      Eu1175   2.360       .  S
O329       Eu625   2.356   1_545  S
O330        C353   1.291       .  A
O330       Eu346   2.453       .  S
O331        C354   1.289       .  A
O331       Eu347   2.447   1_556  S
O332        C355   1.289   1_554  A
O332       Eu348   2.451       .  S
O333        C356   1.292       .  A
O333       Eu349   2.466       .  S
O334        C357   1.291       .  A
O334       Eu901   2.457   1_545  S
O335        C358   1.290       .  A
O335       Eu900   2.456   1_554  S
O336        C359   1.292       .  A
O336       Eu350   2.460       .  S
O337        C360   1.291       .  A
O337      Eu1454   2.459       .  S
O338        C359   1.293       .  A
O338       Eu348   2.464   1_556  S
O339        C360   1.291       .  A
O339       Eu349   2.457   1_556  S
O340        C355   1.291       .  A
O340       Eu346   2.460       .  S
O341        C358   1.290       .  A
O341       Eu347   2.458       .  S
O342        C357   1.291       .  A
O342      Eu1451   2.461       .  S
O343        C356   1.291       .  A
O343      Eu1450   2.457   1_454  S
O344        C353   1.290       .  A
O344       Eu350   2.451       .  S
O345        C354   1.295       .  A
O345       Eu902   2.480       .  S
Eu346      O1447   2.458   1_556  S
Eu346      O1148   2.352   1_556  S
Eu346      O1468   2.355       .  S
Eu346       O352   2.351       .  S
Eu347      O1446   2.455       .  S
Eu347      O1157   2.354       .  S
Eu347      O1455   2.346   1_554  S
Eu347       O362   2.349   1_554  S
Eu348       O887   2.462       .  S
Eu348       O597   2.343       .  S
Eu348       O914   2.359   1_554  S
Eu348       O352   2.355   1_554  S
Eu349       O591   2.451       .  S
Eu349       O886   2.456       .  S
Eu349       O605   2.355       .  S
Eu349       O903   2.351   1_554  S
Eu349       O364   2.355   1_554  S
Eu350      O1441   2.458       .  S
Eu350       O897   2.473       .  S
Eu350      O2007   2.343       .  S
Eu350       O914   2.359       .  S
Eu350      O1468   2.359       .  S
Eu350       O352   2.354       .  S
O351      Eu1451   2.345   1_556  S
O351       Eu901   2.352   1_546  S
O351      Eu2006   2.349       .  S
C353        C524   1.480       .  S
C354        C514   1.483       .  S
C355        C434   1.468       .  S
C356        C454   1.478       .  S
C357        C464   1.479       .  S
C358        C444   1.468       .  S
C359        C474   1.478       .  S
C360        C484   1.473       .  S
H361        O362   0.971       .  S
O362       Eu900   2.359       .  S
O362       Eu902   2.353       .  S
H363        O364   0.965       .  S
O364      Eu1450   2.355   1_455  S
O364      Eu1454   2.359       .  S
N365        C370   1.354       .  A
N365        C369   1.353       .  A
N365        H397   1.040   1_565  S
N366        C373   1.352       .  A
N366        C374   1.353       .  A
N367        C372   1.353   1_545  A
N367        C371   1.355   1_545  A
N367        H398   1.040       .  S
N368        C375   1.353       .  A
N368        C376   1.351   1_565  A
C369        C377   1.389       .  A
C369        C385   1.418   1_565  A
C370        C386   1.412       .  A
C370        C378   1.385       .  A
C371        C379   1.388       .  A
C371        C388   1.419   1_565  A
C372        C387   1.415       .  A
C372        C380   1.386       .  A
C373        C385   1.418       .  A
C373        C381   1.387       .  A
C374        C388   1.417       .  A
C374        C382   1.386       .  A
C375        C383   1.385   1_565  A
C375        C386   1.411       .  A
C376        C384   1.387       .  A
C376        C387   1.414   1_545  A
C377        C378   1.376       .  A
C377        H389   1.082       .  S
C378        H390   1.082       .  S
C379        C380   1.376       .  A
C379        H391   1.082       .  S
C380        H392   1.082       .  S
C381        C382   1.376       .  A
C381        H393   1.082       .  S
C382        H394   1.082       .  S
C383        C384   1.373       .  A
C383        H395   1.082       .  S
C384        H396   1.082       .  S
C385        C507   1.495       .  S
C386        C497   1.488       .  S
C387        C487   1.491       .  S
C388        C477   1.500       .  S
N399        C404   1.351   1_554  A
N399        C403   1.354   1_554  A
N399        H431   1.040       .  S
N400        C407   1.350       .  A
N400        C408   1.350       .  A
N401        C406   1.352   1_554  A
N401        C405   1.352   1_554  A
N401        H432   1.040       .  S
N402        C409   1.350   1_556  A
N402        C410   1.351   1_556  A
C403        C411   1.388       .  A
C403        C419   1.417   1_556  A
C404        C420   1.412   1_556  A
C404        C412   1.386       .  A
C405        C413   1.388       .  A
C405        C422   1.415   1_556  A
C406        C421   1.412       .  A
C406        C414   1.386       .  A
C407        C419   1.412       .  A
C407        C415   1.386       .  A
C408        C422   1.411       .  A
C408        C416   1.386       .  A
C409        C417   1.386       .  A
C409        C420   1.409       .  A
C410        C418   1.387       .  A
C410        C421   1.411   1_554  A
C411        C412   1.377       .  A
C411        H423   1.082       .  S
C412        H424   1.083       .  S
C413        C414   1.378       .  A
C413        H425   1.082       .  S
C414        H426   1.082       .  S
C415        C416   1.374       .  A
C415        H427   1.082       .  S
C416        H428   1.082       .  S
C417        C418   1.371       .  A
C417        H429   1.082       .  S
C418        H430   1.082       .  S
C419        C467   1.494       .  S
C420        C447   1.481       .  S
C421        C437   1.484       .  S
C422        C457   1.487       .  S
C433        C438   1.399       .  A
C433        F440   1.358       .  S
C434        C435   1.403       .  A
C435        C436   1.396       .  A
C435        F442   1.356       .  S
C436        C437   1.404       .  A
C436        F441   1.358       .  S
C438        F439   1.358       .  S
C443        C448   1.396       .  A
C443        F450   1.356       .  S
C444        C445   1.404   1_554  A
C445        C446   1.398       .  A
C445        F452   1.356       .  S
C446        C447   1.404   1_556  A
C446        F451   1.358       .  S
C448        F449   1.358       .  S
C453        C454   1.407   1_556  A
C453        C458   1.399       .  A
C453        F460   1.358       .  S
C454        C455   1.407       .  A
C455        C456   1.399       .  A
C456        C457   1.405       .  A
C457        C458   1.405   1_554  A
C458        F459   1.358       .  S
C463        C464   1.406   1_556  A
C463        C468   1.397       .  A
C463        F470   1.358       .  S
C464        C465   1.408       .  A
C465        C466   1.400       .  A
C466        C467   1.407       .  A
C467        C468   1.408   1_554  A
C468        F469   1.358       .  S
C473       C1026   1.408       .  A
C473        C478   1.403       .  A
C473        F480   1.358       .  S
C474       C1025   1.406       .  A
C474        C475   1.407       .  A
C475        C476   1.400       .  A
C475        F482   1.358       .  S
C476       C1029   1.407       .  A
C476        F481   1.358       .  S
C477       C1028   1.408   1_545  A
C477        C478   1.410       .  A
C478        F479   1.358       .  S
C483        C484   1.404       .  A
C483        C488   1.397       .  A
C483        F490   1.355       .  S
C484       C1037   1.405       .  A
C485       C1036   1.405       .  A
C485        C486   1.402       .  A
C485        F492   1.358       .  S
C486        C487   1.408   1_545  A
C486        F491   1.358       .  S
C487       C1040   1.406       .  A
C488       C1039   1.406       .  A
C488        F489   1.358       .  S
C493       C1046   1.405       .  A
C493        C498   1.398       .  A
C493        F500   1.352       .  S
C494       C1045   1.405       .  A
C494        C495   1.402   1_565  A
C495        C496   1.397       .  A
C495        F502   1.354       .  S
C496        C497   1.403   1_545  A
C496        F501   1.358       .  S
C497       C1050   1.407       .  A
C498       C1049   1.407       .  A
C498        F499   1.358       .  S
C503       C1056   1.407       .  A
C503        C508   1.400       .  A
C503        F510   1.358       .  S
C504       C1055   1.407       .  A
C504        C505   1.408   1_565  A
C505        C506   1.399       .  A
C505        F512   1.357       .  S
C506        C507   1.408       .  A
C506        F511   1.358       .  S
C507       C1060   1.407   1_545  A
C508       C1059   1.408       .  A
C508        F509   1.358       .  S
C513       C1618   1.406       .  A
C513        C518   1.401       .  A
C513        F520   1.358       .  S
C514       C1617   1.407       .  A
C514        C515   1.408       .  A
C515        C516   1.400       .  A
C515        F522   1.357       .  S
C516        C517   1.407       .  A
C516        F521   1.358       .  S
C517       C1622   1.406       .  A
C517       C1403   1.494       .  S
C518       C1621   1.406       .  A
C518        F519   1.357       .  S
C523        C524   1.408       .  A
C523        C528   1.396       .  A
C523        F530   1.357       .  S
C524       C1629   1.408       .  A
C525       C1628   1.408   1_455  A
C525        C526   1.395       .  A
C525        F532   1.355       .  S
C526       C1631   1.405   1_455  A
C526        F531   1.358       .  S
C527       C1630   1.404       .  A
C527        C528   1.407       .  A
C527       C1404   1.488       .  S
C528        F529   1.358       .  S
C533        C534   1.407       .  A
C533        C538   1.397       .  A
C533       F1644   1.353       .  S
C534       C1639   1.409       .  A
C535       C1638   1.409       .  A
C535        C536   1.403       .  A
C535       F1646   1.358       .  S
C536       C1641   1.409       .  A
C536       F1645   1.358       .  S
C537       C1640   1.410       .  A
C537        C538   1.407       .  A
C537       C1401   1.499       .  S
C538       F1643   1.358       .  S
F539       C1642   1.358       .  S
F540       C1637   1.352       .  S
F541       C1640   1.358       .  S
F542       C1639   1.358       .  S
C543        C544   1.407       .  A
C543        C548   1.402       .  A
C543        F550   1.358       .  S
C544       C1649   1.405       .  A
C545       C1648   1.405   1_455  A
C545        C546   1.398       .  A
C545        F552   1.358       .  S
C546       C1651   1.406   1_455  A
C546        F551   1.358       .  S
C547       C1650   1.405       .  A
C547        C548   1.409       .  A
C547       C1402   1.492       .  S
C548        F549   1.358       .  S
N553        C558   1.349   1_655  A
N553        C557   1.351   1_655  A
N553        H585   1.042       .  S
N554        C561   1.350       .  A
N554        C562   1.350       .  A
N555        C560   1.352       .  A
N555        C559   1.352       .  A
N555        H586   1.042   1_455  S
N556        C563   1.349   1_455  A
N556        C564   1.349   1_455  A
C557        C565   1.388       .  A
C557        C573   1.412   1_455  A
C558        C574   1.408   1_455  A
C558        C566   1.386       .  A
C559        C567   1.388       .  A
C559        C576   1.416   1_455  A
C560        C575   1.413       .  A
C560        C568   1.386       .  A
C561        C573   1.411       .  A
C561        C569   1.385       .  A
C562        C576   1.415       .  A
C562        C570   1.388       .  A
C563        C571   1.386       .  A
C563        C574   1.408       .  A
C564        C572   1.387       .  A
C564        C575   1.411   1_655  A
C565        C566   1.376       .  A
C565        H577   1.082       .  S
C566        H578   1.082       .  S
C567        C568   1.379       .  A
C567        H579   1.082       .  S
C568        H580   1.082       .  S
C569        C570   1.376       .  A
C569        H581   1.082       .  S
C570        H582   1.082       .  S
C571        C572   1.373       .  A
C571        H583   1.082       .  S
C572        H584   1.082       .  S
C573       C1917   1.491       .  S
C574       C1927   1.480       .  S
C575       C1897   1.490       .  S
C576       C1907   1.496       .  S
O587        C598   1.286       .  A
O587       Eu899   2.429       .  S
O588        C599   1.293       .  A
O588       Eu898   2.470   1_554  S
O589        C600   1.292       .  A
O589       Eu595   2.462       .  S
O590        C601   1.291       .  A
O590      Eu1699   2.462       .  S
O591        C601   1.289       .  A
O592       Eu900   2.451   1_554  S
O593        C599   1.290       .  A
O594        C598   1.292       .  A
O594       Eu595   2.458       .  S
Eu595      O1694   2.462       .  S
Eu595      O1709   2.353       .  S
Eu595       O597   2.355       .  S
Eu595      O1148   2.348       .  S
O596      Eu1147   2.353       .  S
O596       Eu901   2.355       .  S
O596      Eu2002   2.361   1_454  S
O597       Eu899   2.349       .  S
C598        C820   1.463       .  S
C599        C810   1.480       .  S
C600        C780   1.483       .  S
C601        C770   1.466       .  S
H602        O603   0.968       .  S
O603       Eu900   2.354   1_564  S
O603       Eu898   2.348   1_554  S
H604        O605   0.970       .  S
O605      Eu1699   2.354       .  S
O605      Eu2003   2.362       .  S
O606        C629   1.290       .  A
O606       Eu622   2.453       .  S
O607        C630   1.290       .  A
O607       Eu623   2.455       .  S
O608        C631   1.291       .  A
O608       Eu624   2.460   1_565  S
O609        C632   1.290       .  A
O609       Eu625   2.453       .  S
O610        C633   1.292       .  A
O611        C634   1.291       .  A
O612        C635   1.292       .  A
O612       Eu626   2.464       .  S
O613        C636   1.292       .  A
O613      Eu1730   2.465   1_565  S
O614        C635   1.291       .  A
O614       Eu624   2.455       .  S
O615        C636   1.290       .  A
O615       Eu625   2.455       .  S
O616        C631   1.291       .  A
O616       Eu622   2.460       .  S
O617        C634   1.291       .  A
O617       Eu623   2.466       .  S
O618        C633   1.290       .  A
O618      Eu1727   2.454   1_455  S
O619        C632   1.290       .  A
O619      Eu1726   2.452   1_455  S
O620        C629   1.292       .  A
O620       Eu626   2.464   1_565  S
O621        C630   1.293       .  A
Eu622       O864   2.469       .  S
Eu622      O1723   2.451       .  S
Eu622      O1976   2.349       .  S
Eu622       O879   2.349       .  S
Eu622      O1744   2.354       .  S
Eu622       O628   2.350       .  S
Eu623       O863   2.464       .  S
Eu623      O1722   2.455       .  S
Eu623       O873   2.353       .  S
Eu623      O1985   2.363       .  S
Eu623      O1731   2.351       .  S
Eu623       O638   2.347       .  S
Eu624       O868   2.458       .  S
Eu624       O879   2.353   1_545  S
Eu624       O628   2.353   1_545  S
Eu625       O872   2.345       .  S
Eu625       O640   2.357       .  S
Eu626      O1717   2.466   1_545  S
Eu626      O1179   2.351       .  S
Eu626      O1744   2.351   1_545  S
Eu626       O628   2.353   1_545  S
O627      Eu1727   2.351   1_455  S
O627      Eu1178   2.344       .  S
C629        C800   1.486       .  S
C630        C790   1.482       .  S
C631        C710   1.476       .  S
C632        C730   1.468       .  S
C633        C740   1.474       .  S
C634        C720   1.476       .  S
C635        C750   1.475       .  S
C636        C760   1.476       .  S
H637        O638   0.971       .  S
H639        O640   0.960       .  S
O640      Eu1726   2.355   1_455  S
O640      Eu1730   2.353   1_565  S
N641        C646   1.351       .  A
N641        C645   1.353       .  A
N641        H673   1.041       .  S
N642        C649   1.350       .  A
N642        C650   1.349       .  A
N643        C648   1.350       .  A
N643        C647   1.351       .  A
N643        H674   1.041       .  S
N644        C651   1.349       .  A
N644        C652   1.349       .  A
C645        C653   1.388       .  A
C645        C661   1.416       .  A
C646        C662   1.410       .  A
C646        C654   1.386       .  A
C647        C655   1.388       .  A
C647        C664   1.413       .  A
C648        C663   1.409       .  A
C648        C656   1.386       .  A
C649        C661   1.412       .  A
C649        C657   1.387       .  A
C650        C664   1.411       .  A
C650        C658   1.386       .  A
C651        C659   1.386       .  A
C651        C662   1.408       .  A
C652        C660   1.387       .  A
C652        C663   1.410       .  A
C653        C654   1.377       .  A
C653        H665   1.082       .  S
C654        H666   1.082       .  S
C655        C656   1.377       .  A
C655        H667   1.082       .  S
C656        H668   1.082       .  S
C657        C658   1.374       .  A
C657        H669   1.082       .  S
C658        H670   1.082       .  S
C659        C660   1.374       .  A
C659        H671   1.082       .  S
C660        H672   1.082       .  S
C661        C783   1.493       .  S
C662        C773   1.478       .  S
C663        C763   1.482       .  S
C664        C753   1.489       .  S
N675        C680   1.353       .  A
N675        C679   1.354       .  A
N675        H707   1.038       .  S
N676        C683   1.352       .  A
N676        C684   1.351       .  A
N677        C682   1.354       .  A
N677        C681   1.352       .  A
N677        H708   1.039       .  S
N678        C685   1.351       .  A
N678        C686   1.352       .  A
C679        C687   1.387       .  A
C679        C695   1.417       .  A
C680        C696   1.416       .  A
C680        C688   1.387       .  A
C681        C689   1.387       .  A
C681        C698   1.414       .  A
C682        C697   1.415       .  A
C682        C690   1.387       .  A
C683        C695   1.412       .  A
C683        C691   1.386       .  A
C684        C698   1.412       .  A
C684        C692   1.387       .  A
C685        C693   1.386       .  A
C685        C696   1.412       .  A
C686        C694   1.386       .  A
C686        C697   1.412       .  A
C687        C688   1.376       .  A
C687        H699   1.082       .  S
C688        H700   1.082       .  S
C689        C690   1.377       .  A
C689        H701   1.082       .  S
C690        H702   1.082       .  S
C691        C692   1.371       .  A
C691        H703   1.082       .  S
C692        H704   1.082       .  S
C693        C694   1.372       .  A
C693        H705   1.082       .  S
C694        H706   1.082       .  S
C695        C743   1.490       .  S
C696        C723   1.486       .  S
C697        C713   1.491       .  S
C698        C733   1.484       .  S
C709        C986   1.407   1_554  A
C709        C714   1.403       .  A
C709        F716   1.358       .  S
C710        C985   1.405       .  A
C710        C711   1.406       .  A
C711        C712   1.400       .  A
C711        F718   1.356       .  S
C712        C713   1.407       .  A
C712        F717   1.358       .  S
C713        C990   1.406       .  A
C714        C989   1.406   1_554  A
C714        F715   1.358       .  S
C719        C996   1.406       .  A
C719        C724   1.400       .  A
C719        F726   1.353       .  S
C720        C995   1.404       .  A
C720        C721   1.405       .  A
C721        C722   1.400       .  A
C721        F728   1.354       .  S
C722        C723   1.405       .  A
C722        F727   1.358       .  S
C723       C1000   1.404       .  A
C724        C999   1.404       .  A
C724        F725   1.358       .  S
C729        C730   1.404       .  A
C729        C734   1.396       .  A
C729        F736   1.358       .  S
C730        C731   1.406       .  A
C731        C732   1.399       .  A
C731       F1014   1.358       .  S
C732        C733   1.405       .  A
C732       F1013   1.358       .  S
C733        C734   1.405       .  A
C734        F735   1.358       .  S
F737       C1008   1.357       .  S
F738       C1007   1.358       .  S
C739        C740   1.406       .  A
C739        C744   1.401       .  A
C739        F746   1.358       .  S
C740        C741   1.403       .  A
C741        C742   1.397       .  A
C741       F1024   1.356       .  S
C742        C743   1.405       .  A
C742       F1023   1.357       .  S
C743        C744   1.408       .  A
C744        F745   1.358       .  S
F747       C1018   1.358       .  S
F748       C1017   1.356       .  S
C749        C754   1.397       .  A
C749        F756   1.358       .  S
C750        C751   1.406   1_545  A
C751        C752   1.398       .  A
C751        F758   1.358       .  S
C752        F757   1.358       .  S
C753        C754   1.406       .  A
C754        F755   1.358       .  S
C759        C760   1.404       .  A
C759        C764   1.397       .  A
C759        F766   1.355       .  S
C761        C762   1.399       .  A
C761        F768   1.358       .  S
C762        C763   1.406       .  A
C762        F767   1.358       .  S
C764        F765   1.358       .  S
C769        C774   1.400       .  A
C769        F776   1.357       .  S
C770        C771   1.403       .  A
C771        C772   1.396       .  A
C771        F778   1.356       .  S
C772        C773   1.402       .  A
C772        F777   1.358       .  S
C774        F775   1.357       .  S
C779        C784   1.397       .  A
C779        F786   1.358       .  S
C780        C781   1.408       .  A
C781        C782   1.397       .  A
C781        F788   1.354       .  S
C782        C783   1.406       .  A
C782        F787   1.358       .  S
C784        F785   1.358       .  S
C789       C1894   1.407       .  A
C789        C794   1.400       .  A
C789        F796   1.358       .  S
C790       C1893   1.407       .  A
C790        C791   1.408       .  A
C791        C792   1.398       .  A
C791        F798   1.354       .  S
C792        C793   1.405       .  A
C792        F797   1.359       .  S
C793       C1898   1.407       .  A
C793       C1679   1.491       .  S
C794       C1897   1.407       .  A
C794        F795   1.358       .  S
C799        C800   1.410       .  A
C799        C804   1.398       .  A
C799        F806   1.357       .  S
C800       C1905   1.408       .  A
C801       C1904   1.408   1_455  A
C801        C802   1.398       .  A
C801        F808   1.355       .  S
C802       C1907   1.407   1_455  A
C802        F807   1.358       .  S
C803       C1906   1.408       .  A
C803        C804   1.408       .  A
C803       C1680   1.497       .  S
C804        F805   1.358       .  S
C809        C810   1.408       .  A
C809        C814   1.397       .  A
C809       F1920   1.358       .  S
C810       C1915   1.407       .  A
C811       C1914   1.407       .  A
C811        C812   1.399       .  A
C811       F1922   1.358       .  S
C812       C1917   1.408       .  A
C812       F1921   1.358       .  S
C813       C1916   1.407       .  A
C813        C814   1.406       .  A
C813       C1677   1.490       .  S
C814       F1919   1.358       .  S
F815       C1918   1.358       .  S
F816       C1913   1.357       .  S
F817       C1916   1.358       .  S
F818       C1915   1.358       .  S
C819        C820   1.405       .  A
C819        C824   1.396       .  A
C819        F826   1.359       .  S
C820       C1925   1.402       .  A
C821       C1924   1.402   1_455  A
C821        C822   1.393       .  A
C821        F828   1.358       .  S
C822       C1927   1.405   1_455  A
C822        F827   1.357       .  S
C823       C1926   1.405       .  A
C823        C824   1.406       .  A
C823       C1678   1.481       .  S
C824        F825   1.358       .  S
N829        C834   1.351   1_655  A
N829        C833   1.355   1_655  A
N829        H861   1.042       .  S
N830        C837   1.352       .  A
N830        C838   1.351       .  A
N831        C836   1.353       .  A
N831        C835   1.352       .  A
N831        H862   1.041   1_455  S
N832        C839   1.352   1_455  A
N832        C840   1.353       .  A
C833        C841   1.387       .  A
C833        C849   1.417   1_455  A
C834        C850   1.413       .  A
C834        C842   1.386       .  A
C835        C843   1.388       .  A
C835        C852   1.417       .  A
C836        C851   1.415       .  A
C836        C844   1.387       .  A
C837        C849   1.415       .  A
C837        C845   1.385       .  A
C838        C852   1.415   1_655  A
C838        C846   1.387       .  A
C839        C847   1.386       .  A
C839        C850   1.416   1_655  A
C840        C848   1.386   1_455  A
C840        C851   1.416       .  A
C841        C842   1.377       .  A
C841        H853   1.082       .  S
C842        H854   1.082       .  S
C843        C844   1.380       .  A
C843        H855   1.082       .  S
C844        H856   1.082       .  S
C845        C846   1.376       .  A
C845        H857   1.082       .  S
C846        H858   1.082       .  S
C847        C848   1.376       .  A
C847        H859   1.082       .  S
C848        H860   1.082       .  S
C849       C2193   1.504       .  S
C850       C2203   1.492       .  S
C851       C2173   1.496       .  S
C852       C2183   1.494       .  S
O863        C874   1.292       .  A
O864        C875   1.293       .  A
O865        C876   1.294       .  A
O865       Eu871   2.471       .  S
O866        C877   1.293       .  A
O866      Eu1975   2.468   1_455  S
O867        C877   1.290       .  A
O869        C875   1.291       .  A
O870        C874   1.291       .  A
O870       Eu871   2.458       .  S
Eu871      O1970   2.468       .  S
Eu871      O1985   2.358       .  S
Eu871       O873   2.360       .  S
Eu871      O1424   2.350       .  S
O872      Eu1423   2.343   1_455  S
O872      Eu1726   2.348   1_455  S
C874       C1096   1.475       .  S
C875       C1086   1.487       .  S
C876       C1056   1.485       .  S
C877       C1046   1.481       .  S
H878        O879   0.968       .  S
H880        O881   0.970       .  S
O881      Eu1975   2.358   1_455  S
O881      Eu1727   2.363   1_455  S
O882        C905   1.292       .  A
O882       Eu898   2.460       .  S
O883        C906   1.289       .  A
O883       Eu899   2.448   1_556  S
O884        C907   1.293       .  A
O884       Eu900   2.472   1_565  S
O885        C908   1.292   1_554  A
O885       Eu901   2.458       .  S
O886        C909   1.291       .  A
O887        C910   1.291       .  A
O888        C911   1.293       .  A
O888       Eu902   2.465       .  S
O889        C912   1.292       .  A
O889      Eu2006   2.460       .  S
O890        C911   1.293       .  A
O890       Eu900   2.466       .  S
O891        C912   1.291       .  A
O891       Eu901   2.461   1_546  S
O892        C907   1.292       .  A
O892       Eu898   2.468       .  S
O893        C910   1.292       .  A
O893       Eu899   2.469       .  S
O894        C909   1.291       .  A
O894      Eu2003   2.458       .  S
O895        C908   1.290       .  A
O895      Eu2002   2.449   1_455  S
O896        C905   1.292       .  A
O896       Eu902   2.465   1_565  S
O897        C906   1.293       .  A
Eu898      O1999   2.450       .  S
Eu898      O1700   2.360   1_556  S
Eu898      O2020   2.359       .  S
Eu898       O904   2.352       .  S
Eu899      O1998   2.458       .  S
Eu899      O1709   2.361       .  S
Eu899      O2007   2.345   1_554  S
Eu899       O914   2.346   1_554  S
Eu900       O904   2.353   1_545  S
Eu901       O916   2.356   1_554  S
Eu902      O1993   2.460       .  S
Eu902      O1455   2.349       .  S
Eu902      O2020   2.356   1_545  S
Eu902       O904   2.360   1_545  S
O903      Eu2003   2.345   1_556  S
O903      Eu1454   2.343       .  S
C905       C1076   1.487       .  S
C906       C1066   1.481       .  S
C907        C986   1.483       .  S
C908       C1006   1.472   1_556  S
C909       C1016   1.475       .  S
C910        C996   1.479       .  S
C911       C1026   1.482       .  S
C912       C1036   1.474       .  S
H913        O914   0.971       .  S
H915        O916   0.965       .  S
O916      Eu2002   2.358   1_455  S
O916      Eu2006   2.355   1_565  S
N917        C922   1.353       .  A
N917        C921   1.353       .  A
N917        H949   1.042       .  S
N918        C925   1.353       .  A
N918        C926   1.352       .  A
N919        C924   1.353       .  A
N919        C923   1.353       .  A
N919        H950   1.041       .  S
N920        C927   1.351       .  A
N920        C928   1.351       .  A
C921        C929   1.387       .  A
C921        C937   1.416       .  A
C922        C938   1.415       .  A
C922        C930   1.387       .  A
C923        C931   1.388       .  A
C923        C940   1.416       .  A
C924        C939   1.414       .  A
C924        C932   1.386       .  A
C925        C937   1.416       .  A
C925        C933   1.387       .  A
C926        C940   1.415       .  A
C926        C934   1.386       .  A
C927        C935   1.387       .  A
C927        C938   1.414       .  A
C928        C936   1.386       .  A
C928        C939   1.412       .  A
C929        C930   1.378       .  A
C929        H941   1.082       .  S
C930        H942   1.082       .  S
C931        C932   1.376       .  A
C931        H943   1.082       .  S
C932        H944   1.082       .  S
C933        C934   1.375       .  A
C933        H945   1.082       .  S
C934        H946   1.082       .  S
C935        C936   1.374       .  A
C935        H947   1.082       .  S
C936        H948   1.082       .  S
C937       C1059   1.498       .  S
C938       C1049   1.495       .  S
C939       C1039   1.490       .  S
C940       C1029   1.495       .  S
N951        C956   1.350   1_554  A
N951        C955   1.352   1_554  A
N951        H983   1.041       .  S
N952        C959   1.349       .  A
N952        C960   1.348       .  A
N953        C958   1.353   1_554  A
N953        C957   1.352   1_554  A
N953        H984   1.041       .  S
N954        C961   1.351   1_556  A
N954        C962   1.352   1_556  A
C955        C963   1.387       .  A
C955        C971   1.414   1_556  A
C956        C972   1.411   1_556  A
C956        C964   1.387       .  A
C957        C965   1.387       .  A
C957        C974   1.416   1_556  A
C958        C973   1.415       .  A
C958        C966   1.386       .  A
C959        C971   1.409       .  A
C959        C967   1.386       .  A
C960        C974   1.409       .  A
C960        C968   1.387       .  A
C961        C969   1.386       .  A
C961        C972   1.412       .  A
C962        C970   1.386       .  A
C962        C973   1.412   1_554  A
C963        C964   1.377       .  A
C963        H975   1.082       .  S
C964        H976   1.082       .  S
C965        C966   1.379       .  A
C965        H977   1.082       .  S
C966        H978   1.082       .  S
C967        C968   1.373       .  A
C967        H979   1.082       .  S
C968        H980   1.082       .  S
C969        C970   1.374       .  A
C969        H981   1.082       .  S
C970        H982   1.082       .  S
C971       C1019   1.488       .  S
C972        C999   1.485       .  S
C973        C989   1.492       .  S
C974       C1009   1.485       .  S
C985        C990   1.399       .  A
C985        F992   1.358       .  S
C986        C987   1.406       .  A
C987        C988   1.401       .  A
C987        F994   1.355       .  S
C988        C989   1.405       .  A
C988        F993   1.358       .  S
C990        F991   1.358       .  S
C995       C1000   1.399       .  A
C995       F1002   1.356       .  S
C996        C997   1.404   1_554  A
C997        C998   1.398       .  A
C997       F1004   1.354       .  S
C998        C999   1.404   1_556  A
C998       F1003   1.358       .  S
C1000      F1001   1.358       .  S
C1005      C1006   1.407   1_556  A
C1005      C1010   1.399       .  A
C1005      F1012   1.359       .  S
C1006      C1007   1.405       .  A
C1007      C1008   1.394       .  A
C1008      C1009   1.403       .  A
C1009      C1010   1.408   1_554  A
C1010      F1011   1.358       .  S
C1015      C1016   1.406   1_556  A
C1015      C1020   1.398       .  A
C1015      F1022   1.358       .  S
C1016      C1017   1.406       .  A
C1017      C1018   1.397       .  A
C1018      C1019   1.405       .  A
C1019      C1020   1.407   1_554  A
C1020      F1021   1.358       .  S
C1025      C1030   1.400       .  A
C1025      F1032   1.358       .  S
C1026      C1027   1.406   1_545  A
C1027      C1028   1.400       .  A
C1027      F1034   1.358       .  S
C1028      F1033   1.357       .  S
C1029      C1030   1.409       .  A
C1030      F1031   1.358       .  S
C1035      C1036   1.403   1_565  A
C1035      C1040   1.396       .  A
C1035      F1042   1.354       .  S
C1037      C1038   1.400       .  A
C1037      F1044   1.358       .  S
C1038      C1039   1.408       .  A
C1038      F1043   1.358       .  S
C1040      F1041   1.358       .  S
C1045      C1050   1.404       .  A
C1045      F1052   1.356       .  S
C1046      C1047   1.406       .  A
C1047      C1048   1.398       .  A
C1047      F1054   1.356       .  S
C1048      C1049   1.408       .  A
C1048      F1053   1.358       .  S
C1050      F1051   1.357       .  S
C1055      C1060   1.399       .  A
C1055      F1062   1.358       .  S
C1056      C1057   1.409       .  A
C1057      C1058   1.402       .  A
C1057      F1064   1.357       .  S
C1058      C1059   1.409       .  A
C1058      F1063   1.358       .  S
C1060      F1061   1.358       .  S
C1065      C2170   1.407       .  A
C1065      C1070   1.403       .  A
C1065      F1072   1.358       .  S
C1066      C2169   1.407       .  A
C1066      C1067   1.406       .  A
C1067      C1068   1.399       .  A
C1067      F1074   1.356       .  S
C1068      C1069   1.407       .  A
C1068      F1073   1.358       .  S
C1069      C2174   1.409       .  A
C1069      C1955   1.496       .  S
C1070      C2173   1.409       .  A
C1070      F1071   1.357       .  S
C1075      C1076   1.409       .  A
C1075      C1080   1.398       .  A
C1075      F1082   1.355       .  S
C1076      C2181   1.409       .  A
C1077      C2180   1.409   1_455  A
C1077      C1078   1.400       .  A
C1077      F1084   1.355       .  S
C1078      C2183   1.407       .  A
C1078      F1083   1.358       .  S
C1079      C2182   1.407       .  A
C1079      C1080   1.406       .  A
C1079      C1956   1.494       .  S
C1080      F1081   1.358       .  S
C1085      C1086   1.408       .  A
C1085      C1090   1.399       .  A
C1085      F2196   1.357       .  S
C1086      C2191   1.408       .  A
C1087      C2190   1.408       .  A
C1087      C1088   1.403       .  A
C1087      F2198   1.358       .  S
C1088      C2193   1.411       .  A
C1088      F2197   1.358       .  S
C1089      C2192   1.411       .  A
C1089      C1090   1.409       .  A
C1089      C1953   1.503       .  S
C1090      F2195   1.358       .  S
F1091      C2194   1.358       .  S
F1092      C2189   1.357       .  S
F1093      C2192   1.358       .  S
F1094      C2191   1.358       .  S
C1095      C1096   1.406       .  A
C1095      C1100   1.401       .  A
C1095      F1102   1.358       .  S
C1096      C2201   1.406       .  A
C1097      C2200   1.406   1_455  A
C1097      C1098   1.398       .  A
C1097      F1104   1.358       .  S
C1098      C2203   1.405       .  A
C1098      F1103   1.357       .  S
C1099      C2202   1.405       .  A
C1099      C1100   1.409       .  A
C1099      C1954   1.491       .  S
C1100      F1101   1.358       .  S
N1105      C1110   1.350       .  A
N1105      C1109   1.352       .  A
N1105      H1137   1.041       .  S
N1106      C1113   1.349       .  A
N1106      C1114   1.348       .  A
N1107      C1112   1.351       .  A
N1107      C1111   1.350       .  A
N1107      H1138   1.041       .  S
N1108      C1115   1.347       .  A
N1108      C1116   1.349       .  A
C1109      C1117   1.387       .  A
C1109      C1125   1.413       .  A
C1110      C1126   1.409       .  A
C1110      C1118   1.386       .  A
C1111      C1119   1.388       .  A
C1111      C1128   1.412       .  A
C1112      C1127   1.410       .  A
C1112      C1120   1.386       .  A
C1113      C1125   1.411       .  A
C1113      C1121   1.386       .  A
C1114      C1128   1.411       .  A
C1114      C1122   1.387       .  A
C1115      C1123   1.386       .  A
C1115      C1126   1.408       .  A
C1116      C1124   1.387       .  A
C1116      C1127   1.410       .  A
C1117      C1118   1.376       .  A
C1117      H1129   1.082       .  S
C1118      H1130   1.082       .  S
C1119      C1120   1.376       .  A
C1119      H1131   1.082       .  S
C1120      H1132   1.082       .  S
C1121      C1122   1.376       .  A
C1121      H1133   1.082       .  S
C1122      H1134   1.082       .  S
C1123      C1124   1.375       .  A
C1123      H1135   1.082       .  S
C1124      H1136   1.082       .  S
O1139      C1150   1.287       .  A
O1139     Eu1451   2.436       .  S
O1140      C1151   1.291       .  A
O1140     Eu1450   2.460   1_554  S
O1141      C1152   1.292       .  A
O1141     Eu1147   2.458   1_645  S
O1142      C1153   1.291       .  A
O1143      C1153   1.290       .  A
O1143     Eu2005   2.459       .  S
O1144      C1704   1.291       .  A
O1144     Eu1452   2.458       .  S
O1145      C1151   1.291       .  A
O1145     Eu1699   2.457   1_655  S
O1146      C1150   1.291       .  A
O1146     Eu1147   2.460   1_545  S
Eu1147     O1697   2.449   1_455  S
Eu1147     O1149   2.353   1_465  S
Eu1147     O1707   2.359   1_455  S
O1148     Eu1453   2.350       .  S
O1149     Eu1451   2.351   1_655  S
O1149     Eu2004   2.355   1_554  S
C1150      C1372   1.462       .  S
C1151      C1362   1.478       .  S
C1152      C1332   1.479       .  S
C1152      O1696   1.291       .  A
C1153      C1322   1.469       .  S
H1154      O1155   0.968       .  S
O1155     Eu1699   2.350   1_655  S
O1155     Eu1452   2.354       .  S
O1155     Eu1450   2.349   1_554  S
H1156      O1157   0.970       .  S
O1157     Eu2005   2.349   1_545  S
O1158      C1181   1.291       .  A
O1158     Eu1174   2.459       .  S
O1159      C1182   1.290       .  A
O1159     Eu1175   2.454       .  S
O1160      C1183   1.290       .  A
O1160     Eu1176   2.455       .  S
O1161      C1184   1.293       .  A
O1161     Eu1177   2.470       .  S
O1162      C1185   1.290       .  A
O1162     Eu1729   2.454   1_545  S
O1163      C1186   1.289       .  A
O1163     Eu1728   2.453       .  S
O1164      C1187   1.291       .  A
O1164     Eu1178   2.453   1_655  S
O1165      C1188   1.291       .  A
O1166      C1187   1.292       .  A
O1166     Eu1176   2.459       .  S
O1167      C1188   1.289       .  A
O1167     Eu1177   2.452       .  S
O1168      C1183   1.291       .  A
O1168     Eu1174   2.460       .  S
O1169      C1186   1.290       .  A
O1169     Eu1175   2.454   1_655  S
O1170      C1185   1.291       .  A
O1171      C1184   1.290       .  A
O1172      C1181   1.291   1_455  A
O1172     Eu1178   2.456       .  S
O1173      C1182   1.292       .  A
O1173     Eu1730   2.463       .  S
Eu1174     O1416   2.469       .  S
Eu1174     O1431   2.347       .  S
Eu1174     O1180   2.353       .  S
Eu1175     O1415   2.467   1_455  S
Eu1175     O1425   2.350   1_455  S
Eu1175     O1190   2.354   1_455  S
Eu1176     O1420   2.457       .  S
Eu1176     O1715   2.461       .  S
Eu1176     O1977   2.352       .  S
Eu1176     O1431   2.350       .  S
Eu1176     O1742   2.351       .  S
Eu1176     O1180   2.359       .  S
Eu1177     O1971   2.449       .  S
Eu1177     O1714   2.464       .  S
Eu1177     O1424   2.352       .  S
Eu1177     O1985   2.355       .  S
Eu1177     O1731   2.348       .  S
Eu1177     O1192   2.356       .  S
Eu1178     O1725   2.468       .  S
Eu1178     O1742   2.357   1_455  S
Eu1178     O1180   2.358   1_455  S
O1179     Eu1729   2.347   1_545  S
C1181      C1352   1.481       .  S
C1182      C1342   1.475       .  S
C1183      C1262   1.472       .  S
C1184      C1282   1.474       .  S
C1185      C1292   1.476       .  S
C1186      C1272   1.465       .  S
C1187      C1302   1.477       .  S
C1188      C1312   1.470       .  S
H1189      O1190   0.977       .  S
O1190     Eu1728   2.357       .  S
O1190     Eu1730   2.359   1_655  S
H1191      O1192   0.965       .  S
N1193      C1198   1.350       .  A
N1193      C1197   1.353       .  A
N1193      H1225   1.040   1_565  S
N1194      C1201   1.349       .  A
N1194      C1202   1.349       .  A
N1195      C1200   1.351   1_545  A
N1195      C1199   1.352   1_545  A
N1195      H1226   1.041       .  S
N1196      C1203   1.351       .  A
N1196      C1204   1.352       .  A
C1197      C1205   1.388       .  A
C1197      C1213   1.416   1_565  A
C1198      C1214   1.410       .  A
C1198      C1206   1.386       .  A
C1199      C1207   1.387       .  A
C1199      C1216   1.412   1_565  A
C1200      C1215   1.411       .  A
C1200      C1208   1.386       .  A
C1201      C1213   1.412       .  A
C1201      C1209   1.387       .  A
C1202      C1216   1.409       .  A
C1202      C1210   1.385       .  A
C1203      C1211   1.386   1_565  A
C1203      C1214   1.412       .  A
C1204      C1212   1.386   1_565  A
C1204      C1215   1.414       .  A
C1205      C1206   1.378       .  A
C1205      H1217   1.082       .  S
C1206      H1218   1.082       .  S
C1207      C1208   1.376       .  A
C1207      H1219   1.082       .  S
C1208      H1220   1.082       .  S
C1209      C1210   1.374       .  A
C1209      H1221   1.082       .  S
C1210      H1222   1.082       .  S
C1211      C1212   1.375       .  A
C1211      H1223   1.082       .  S
C1212      H1224   1.082       .  S
C1213      C1335   1.490       .  S
C1214      C1325   1.482       .  S
C1215      C1315   1.491       .  S
C1216      C1305   1.484       .  S
N1227      C1232   1.351       .  A
N1227      C1231   1.352       .  A
N1227      H1259   1.039       .  S
N1228      C1235   1.350       .  A
N1228      C1236   1.351       .  A
N1229      C1234   1.352       .  A
N1229      C1233   1.352       .  A
N1229      H1260   1.040       .  S
N1230      C1237   1.350       .  A
N1230      C1238   1.350       .  A
C1231      C1239   1.387       .  A
C1231      C1247   1.414       .  A
C1232      C1248   1.411       .  A
C1232      C1240   1.387       .  A
C1233      C1241   1.387       .  A
C1233      C1250   1.413       .  A
C1234      C1249   1.413       .  A
C1234      C1242   1.387       .  A
C1235      C1247   1.411       .  A
C1235      C1243   1.386       .  A
C1236      C1250   1.410       .  A
C1236      C1244   1.385       .  A
C1237      C1245   1.386       .  A
C1237      C1248   1.409       .  A
C1238      C1246   1.387       .  A
C1238      C1249   1.412       .  A
C1239      C1240   1.375       .  A
C1239      H1251   1.082       .  S
C1240      H1252   1.083       .  S
C1241      C1242   1.376       .  A
C1241      H1253   1.082       .  S
C1242      H1254   1.082       .  S
C1243      C1244   1.371       .  A
C1243      H1255   1.082       .  S
C1244      H1256   1.082       .  S
C1245      C1246   1.373       .  A
C1245      H1257   1.082       .  S
C1246      H1258   1.082       .  S
C1247      C1295   1.488       .  S
C1248      C1275   1.479       .  S
C1249      C1265   1.484       .  S
C1250      C1285   1.486       .  S
C1261      C1538   1.405   1_554  A
C1261      C1266   1.400       .  A
C1261      F1268   1.358       .  S
C1262      C1537   1.406       .  A
C1262      C1263   1.403       .  A
C1263      C1264   1.395       .  A
C1263      F1270   1.353       .  S
C1264      C1265   1.404       .  A
C1264      F1269   1.358       .  S
C1265      C1542   1.405       .  A
C1266      C1541   1.406       .  A
C1266      F1267   1.358       .  S
C1271      C1548   1.403       .  A
C1271      C1276   1.397       .  A
C1271      F1278   1.356       .  S
C1272      C1547   1.403       .  A
C1272      C1273   1.403       .  A
C1273      C1274   1.397       .  A
C1273      F1280   1.356       .  S
C1274      C1275   1.404       .  A
C1274      F1279   1.358       .  S
C1275      C1552   1.403       .  A
C1276      C1551   1.403       .  A
C1276      F1277   1.358       .  S
C1281      C1282   1.407       .  A
C1281      C1286   1.399       .  A
C1281      F1288   1.358       .  S
C1282      C1283   1.405       .  A
C1283      C1284   1.398       .  A
C1283      F1566   1.358       .  S
C1284      C1285   1.405       .  A
C1284      F1565   1.358       .  S
C1285      C1286   1.406       .  A
C1286      F1287   1.358       .  S
F1289      C1560   1.358       .  S
F1290      C1559   1.358       .  S
C1291      C1292   1.406       .  A
C1291      C1296   1.399       .  A
C1291      F1298   1.358       .  S
C1292      C1293   1.405       .  A
C1293      C1294   1.396       .  A
C1293      F1576   1.354       .  S
C1294      C1295   1.404       .  A
C1294      F1575   1.358       .  S
C1295      C1296   1.408       .  A
C1296      F1297   1.358       .  S
F1299      C1570   1.358       .  S
F1300      C1569   1.357       .  S
C1301      C1854   1.408       .  A
C1301      C1306   1.399       .  A
C1301      F1308   1.358       .  S
C1302      C1853   1.407       .  A
C1302      C1303   1.407       .  A
C1303      C1304   1.398       .  A
C1303      F1310   1.358       .  S
C1304      C1857   1.407       .  A
C1304      F1309   1.358       .  S
C1305      C1856   1.405   1_545  A
C1305      C1306   1.404       .  A
C1306      F1307   1.358       .  S
C1311      C1312   1.403       .  A
C1311      C1316   1.394       .  A
C1311      F1318   1.352       .  S
C1312      C1865   1.405       .  A
C1313      C1864   1.405   1_545  A
C1313      C1314   1.401       .  A
C1313      F1320   1.358       .  S
C1314      C1315   1.409   1_545  A
C1314      F1319   1.358       .  S
C1315      C1868   1.405       .  A
C1316      C1867   1.403       .  A
C1316      F1317   1.358       .  S
C1321      C1874   1.404       .  A
C1321      C1326   1.399       .  A
C1321      F1328   1.357       .  S
C1322      C1873   1.404       .  A
C1322      C1323   1.404   1_565  A
C1323      C1324   1.399       .  A
C1323      F1330   1.357       .  S
C1324      C1325   1.404   1_545  A
C1324      F1329   1.358       .  S
C1325      C1878   1.404       .  A
C1326      C1877   1.404       .  A
C1326      F1327   1.358       .  S
C1331      C1884   1.408       .  A
C1331      C1336   1.400       .  A
C1331      F1338   1.358       .  S
C1332      C1883   1.407   1_545  A
C1332      C1333   1.408       .  A
C1333      C1334   1.398       .  A
C1333      F1340   1.357       .  S
C1334      C1335   1.405       .  A
C1334      F1339   1.358       .  S
C1335      C1888   1.407   1_545  A
C1336      C1887   1.408       .  A
C1336      F1337   1.358       .  S
C1341      C1346   1.399       .  A
C1341      F1348   1.358       .  S
C1342      C1343   1.406   1_455  A
C1343      C1344   1.395       .  A
C1343      F1350   1.356       .  S
C1344      C1345   1.404   1_655  A
C1344      F1349   1.358       .  S
C1346      F1347   1.358       .  S
C1351      C1352   1.406       .  A
C1351      C1356   1.396       .  A
C1351      F1358   1.353       .  S
C1353      C1354   1.397       .  A
C1353      F1360   1.353       .  S
C1354      F1359   1.358       .  S
C1355      C1356   1.404       .  A
C1356      F1357   1.358       .  S
C1361      C1362   1.407   1_455  A
C1361      C1366   1.397       .  A
C1363      C1364   1.400       .  A
C1365      C1366   1.406   1_655  A
C1371      C1372   1.404   1_655  A
C1371      C1376   1.395       .  A
C1371      F1378   1.359       .  S
C1373      C1374   1.396       .  A
C1373      F1380   1.358       .  S
C1374      F1379   1.358       .  S
C1375      C1376   1.404       .  A
C1376      F1377   1.358       .  S
N1381      C1386   1.351       .  A
N1381      C1385   1.355       .  A
N1381      H1413   1.042       .  S
N1382      C1389   1.350       .  A
N1382      C1390   1.350       .  A
N1383      C1388   1.352       .  A
N1383      C1387   1.350       .  A
N1383      H1414   1.041       .  S
N1384      C1391   1.351       .  A
N1384      C1392   1.353       .  A
C1385      C1393   1.387       .  A
C1385      C1401   1.417       .  A
C1386      C1402   1.413       .  A
C1386      C1394   1.386       .  A
C1387      C1395   1.388       .  A
C1387      C1404   1.413       .  A
C1388      C1403   1.412       .  A
C1388      C1396   1.386       .  A
C1389      C1401   1.413       .  A
C1389      C1397   1.386       .  A
C1390      C1404   1.414       .  A
C1390      C1398   1.387       .  A
C1391      C1399   1.386       .  A
C1391      C1402   1.414       .  A
C1392      C1400   1.386       .  A
C1392      C1403   1.415       .  A
C1393      C1394   1.377       .  A
C1393      H1405   1.082       .  S
C1394      H1406   1.082       .  S
C1395      C1396   1.378       .  A
C1395      H1407   1.082       .  S
C1396      H1408   1.082       .  S
C1397      C1398   1.375       .  A
C1397      H1409   1.082       .  S
C1398      H1410   1.082       .  S
C1399      C1400   1.376       .  A
C1399      H1411   1.082       .  S
C1400      H1412   1.082       .  S
O1415      C1426   1.292       .  A
O1416      C1427   1.293       .  A
O1417      C1428   1.292       .  A
O1417     Eu1423   2.460       .  S
O1418      C1429   1.292       .  A
O1419      C1429   1.289       .  A
O1419     Eu1729   2.450       .  S
O1420      C1980   1.291       .  A
O1421      C1427   1.293       .  A
O1421     Eu1975   2.467       .  S
O1422      C1426   1.291       .  A
O1422     Eu1423   2.457   1_545  S
Eu1423     O1973   2.453       .  S
Eu1423     O1425   2.354   1_565  S
Eu1423     O1983   2.357       .  S
O1425     Eu1728   2.350       .  S
C1426      C1648   1.476       .  S
C1427      C1638   1.489       .  S
C1428      C1608   1.481       .  S
C1428      O1972   1.291   1_565  A
C1429      C1598   1.473       .  S
H1430      O1431   0.968       .  S
O1431     Eu1975   2.350       .  S
H1432      O1433   0.970       .  S
O1433     Eu1729   2.356   1_545  S
O1434      C1457   1.290       .  A
O1434     Eu1450   2.453       .  S
O1435      C1458   1.289       .  A
O1435     Eu1451   2.447   1_556  S
O1436      C1459   1.290   1_554  A
O1436     Eu1452   2.453       .  S
O1437      C1460   1.292       .  A
O1437     Eu1453   2.465       .  S
O1438      C1461   1.291       .  A
O1438     Eu2005   2.457   1_545  S
O1439      C1462   1.290       .  A
O1439     Eu2004   2.454   1_554  S
O1440      C1463   1.292       .  A
O1440     Eu1454   2.460   1_655  S
O1441      C1464   1.291       .  A
O1442      C1463   1.292       .  A
O1442     Eu1452   2.463   1_556  S
O1443      C1464   1.291       .  A
O1443     Eu1453   2.457   1_556  S
O1444      C1459   1.291       .  A
O1444     Eu1450   2.460       .  S
O1445      C1462   1.290       .  A
O1445     Eu1451   2.460   1_655  S
O1446      C1461   1.291       .  A
O1447      C1460   1.291       .  A
O1448      C1457   1.290       .  A
O1448     Eu1454   2.451   1_655  S
O1449      C1458   1.294       .  A
O1449     Eu2006   2.479       .  S
Eu1450     O1456   2.351       .  S
Eu1451     O1466   2.351   1_454  S
Eu1452     O1991   2.463       .  S
Eu1452     O1701   2.343       .  S
Eu1452     O2018   2.360   1_554  S
Eu1452     O1456   2.354   1_554  S
Eu1453     O1695   2.451       .  S
Eu1453     O1990   2.455       .  S
Eu1453     O1709   2.354       .  S
Eu1453     O2007   2.351   1_554  S
Eu1453     O1468   2.354   1_554  S
Eu1454     O2001   2.473       .  S
Eu1454     O2018   2.359   1_455  S
Eu1454     O1456   2.354   1_455  S
O1455     Eu2005   2.351   1_546  S
C1457      C1628   1.480       .  S
C1458      C1618   1.481       .  S
C1459      C1538   1.470       .  S
C1460      C1558   1.477       .  S
C1461      C1568   1.475       .  S
C1462      C1548   1.468       .  S
C1463      C1578   1.478       .  S
C1464      C1588   1.473       .  S
H1465      O1466   0.971       .  S
O1466     Eu2004   2.360       .  S
O1466     Eu2006   2.353   1_655  S
H1467      O1468   0.965       .  S
N1469      C1474   1.354       .  A
N1469      C1473   1.353       .  A
N1469      H1501   1.040   1_565  S
N1470      C1477   1.352       .  A
N1470      C1478   1.353       .  A
N1471      C1476   1.353   1_545  A
N1471      C1475   1.355   1_545  A
N1471      H1502   1.041       .  S
N1472      C1479   1.352       .  A
N1472      C1480   1.351   1_565  A
C1473      C1481   1.389       .  A
C1473      C1489   1.418   1_565  A
C1474      C1490   1.411       .  A
C1474      C1482   1.385       .  A
C1475      C1483   1.388       .  A
C1475      C1492   1.418   1_565  A
C1476      C1491   1.415       .  A
C1476      C1484   1.386       .  A
C1477      C1489   1.418       .  A
C1477      C1485   1.387       .  A
C1478      C1492   1.417       .  A
C1478      C1486   1.386       .  A
C1479      C1487   1.385   1_565  A
C1479      C1490   1.410       .  A
C1480      C1488   1.387       .  A
C1480      C1491   1.414   1_545  A
C1481      C1482   1.376       .  A
C1481      H1493   1.082       .  S
C1482      H1494   1.082       .  S
C1483      C1484   1.376       .  A
C1483      H1495   1.082       .  S
C1484      H1496   1.082       .  S
C1485      C1486   1.376       .  A
C1485      H1497   1.082       .  S
C1486      H1498   1.082       .  S
C1487      C1488   1.373       .  A
C1487      H1499   1.082       .  S
C1488      H1500   1.082       .  S
C1489      C1611   1.495       .  S
C1490      C1601   1.487       .  S
C1491      C1591   1.491       .  S
C1492      C1581   1.499       .  S
N1503      C1508   1.352   1_554  A
N1503      C1507   1.354       .  A
N1503      H1535   1.040       .  S
N1504      C1511   1.350       .  A
N1504      C1512   1.350       .  A
N1505      C1510   1.352   1_554  A
N1505      C1509   1.352   1_554  A
N1505      H1536   1.039       .  S
N1506      C1513   1.350       .  A
N1506      C1514   1.351       .  A
C1507      C1515   1.388   1_554  A
C1507      C1523   1.417       .  A
C1508      C1524   1.412   1_556  A
C1508      C1516   1.386       .  A
C1509      C1517   1.388       .  A
C1509      C1526   1.415   1_556  A
C1510      C1525   1.413   1_556  A
C1510      C1518   1.386       .  A
C1511      C1523   1.412       .  A
C1511      C1519   1.386       .  A
C1512      C1526   1.412       .  A
C1512      C1520   1.386       .  A
C1513      C1521   1.386       .  A
C1513      C1524   1.409       .  A
C1514      C1522   1.387       .  A
C1514      C1525   1.411       .  A
C1515      C1516   1.377       .  A
C1515      H1527   1.082       .  S
C1516      H1528   1.083       .  S
C1517      C1518   1.377       .  A
C1517      H1529   1.082       .  S
C1518      H1530   1.082       .  S
C1519      C1520   1.373       .  A
C1519      H1531   1.082       .  S
C1520      H1532   1.082       .  S
C1521      C1522   1.371       .  A
C1521      H1533   1.082       .  S
C1522      H1534   1.082       .  S
C1523      C1571   1.492       .  S
C1524      C1551   1.481       .  S
C1525      C1541   1.485       .  S
C1526      C1561   1.487       .  S
C1537      C1542   1.399       .  A
C1537      F1544   1.358       .  S
C1538      C1539   1.403       .  A
C1539      C1540   1.396       .  A
C1539      F1546   1.355       .  S
C1540      C1541   1.405   1_556  A
C1540      F1545   1.358       .  S
C1542      F1543   1.358       .  S
C1547      C1552   1.396       .  A
C1547      F1554   1.356       .  S
C1548      C1549   1.403   1_554  A
C1549      C1550   1.398       .  A
C1549      F1556   1.356       .  S
C1550      C1551   1.404   1_556  A
C1550      F1555   1.358       .  S
C1552      F1553   1.358       .  S
C1557      C1558   1.407   1_556  A
C1557      C1562   1.399       .  A
C1557      F1564   1.358       .  S
C1558      C1559   1.407       .  A
C1559      C1560   1.399       .  A
C1560      C1561   1.405       .  A
C1561      C1562   1.405   1_554  A
C1562      F1563   1.358       .  S
C1567      C1568   1.405   1_556  A
C1567      C1572   1.396       .  A
C1567      F1574   1.358       .  S
C1568      C1569   1.407       .  A
C1569      C1570   1.400       .  A
C1570      C1571   1.407       .  A
C1571      C1572   1.408   1_554  A
C1572      F1573   1.358       .  S
C1577      C2130   1.408       .  A
C1577      C1582   1.403       .  A
C1577      F1584   1.358       .  S
C1578      C2129   1.406       .  A
C1578      C1579   1.406       .  A
C1579      C1580   1.400       .  A
C1579      F1586   1.358       .  S
C1580      C2133   1.407       .  A
C1580      F1585   1.358       .  S
C1581      C2132   1.407   1_545  A
C1581      C1582   1.410       .  A
C1582      F1583   1.358       .  S
C1587      C1588   1.404       .  A
C1587      C1592   1.396       .  A
C1587      F1594   1.355       .  S
C1588      C2141   1.405       .  A
C1589      C2140   1.405       .  A
C1589      C1590   1.401       .  A
C1589      F1596   1.358       .  S
C1590      C1591   1.408   1_545  A
C1590      F1595   1.358       .  S
C1591      C2144   1.406       .  A
C1592      C2143   1.406       .  A
C1592      F1593   1.358       .  S
C1597      C2150   1.405       .  A
C1597      C1602   1.398       .  A
C1597      F1604   1.352       .  S
C1598      C2149   1.405       .  A
C1598      C1599   1.402   1_565  A
C1599      C1600   1.396       .  A
C1599      F1606   1.354       .  S
C1600      C1601   1.403   1_545  A
C1600      F1605   1.358       .  S
C1601      C2154   1.407       .  A
C1602      C2153   1.407       .  A
C1602      F1603   1.358       .  S
C1607      C2160   1.407       .  A
C1607      C1612   1.400       .  A
C1607      F1614   1.358       .  S
C1608      C2159   1.407       .  A
C1608      C1609   1.407   1_565  A
C1609      C1610   1.399       .  A
C1609      F1616   1.357       .  S
C1610      C1611   1.409       .  A
C1610      F1615   1.358       .  S
C1611      C2164   1.407   1_545  A
C1612      C2163   1.408       .  A
C1612      F1613   1.358       .  S
C1617      C1622   1.401       .  A
C1617      F1624   1.358       .  S
C1618      C1619   1.408   1_455  A
C1619      C1620   1.400       .  A
C1619      F1626   1.356       .  S
C1620      C1621   1.407   1_655  A
C1620      F1625   1.358       .  S
C1622      F1623   1.357       .  S
C1627      C1628   1.408       .  A
C1627      C1632   1.397       .  A
C1627      F1634   1.356       .  S
C1629      C1630   1.395       .  A
C1629      F1636   1.355       .  S
C1630      F1635   1.358       .  S
C1631      C1632   1.407       .  A
C1632      F1633   1.358       .  S
C1637      C1638   1.407   1_455  A
C1637      C1642   1.397       .  A
C1639      C1640   1.403       .  A
C1641      C1642   1.407   1_655  A
C1647      C1648   1.406       .  A
C1647      C1652   1.402       .  A
C1647      F1654   1.358       .  S
C1649      C1650   1.397       .  A
C1649      F1656   1.358       .  S
C1650      F1655   1.358       .  S
C1651      C1652   1.409       .  A
C1652      F1653   1.358       .  S
N1657      C1662   1.349       .  A
N1657      C1661   1.351       .  A
N1657      H1689   1.042       .  S
N1658      C1665   1.350       .  A
N1658      C1666   1.350       .  A
N1659      C1664   1.352       .  A
N1659      C1663   1.352       .  A
N1659      H1690   1.042       .  S
N1660      C1667   1.349       .  A
N1660      C1668   1.350       .  A
C1661      C1669   1.387       .  A
C1661      C1677   1.412       .  A
C1662      C1678   1.409       .  A
C1662      C1670   1.386       .  A
C1663      C1671   1.388       .  A
C1663      C1680   1.416       .  A
C1664      C1679   1.413       .  A
C1664      C1672   1.386       .  A
C1665      C1677   1.412       .  A
C1665      C1673   1.385       .  A
C1666      C1680   1.415       .  A
C1666      C1674   1.388       .  A
C1667      C1675   1.386       .  A
C1667      C1678   1.409       .  A
C1668      C1676   1.387       .  A
C1668      C1679   1.411       .  A
C1669      C1670   1.376       .  A
C1669      H1681   1.082       .  S
C1670      H1682   1.082       .  S
C1671      C1672   1.379       .  A
C1671      H1683   1.082       .  S
C1672      H1684   1.082       .  S
C1673      C1674   1.376       .  A
C1673      H1685   1.082       .  S
C1674      H1686   1.082       .  S
C1675      C1676   1.373       .  A
C1675      H1687   1.082       .  S
C1676      H1688   1.082       .  S
O1691      C1702   1.286       .  A
O1691     Eu2003   2.429   1_655  S
O1692      C1703   1.293       .  A
O1692     Eu2002   2.470   1_554  S
O1693      C1704   1.292       .  A
O1693     Eu1699   2.463   1_655  S
O1694      C1705   1.290       .  A
O1695      C1705   1.289       .  A
O1696     Eu2004   2.455   1_554  S
O1697      C1703   1.290       .  A
O1698      C1702   1.292       .  A
O1698     Eu1699   2.458   1_655  S
Eu1699     O1701   2.354   1_455  S
O1700     Eu2005   2.354       .  S
O1701     Eu2003   2.349   1_655  S
C1702      C1924   1.463       .  S
C1703      C1914   1.480       .  S
C1704      C1884   1.484       .  S
C1705      C1874   1.466       .  S
H1706      O1707   0.968       .  S
O1707     Eu2004   2.353   1_564  S
O1707     Eu2002   2.348   1_554  S
H1708      O1709   0.970       .  S
O1710      C1733   1.290       .  A
O1710     Eu1726   2.451       .  S
O1711      C1734   1.290       .  A
O1711     Eu1727   2.455   1_455  S
O1712      C1735   1.291       .  A
O1712     Eu1728   2.461   1_565  S
O1713      C1736   1.290       .  A
O1713     Eu1729   2.453       .  S
O1714      C1737   1.292       .  A
O1715      C1738   1.291       .  A
O1716      C1739   1.292       .  A
O1716     Eu1730   2.465   1_655  S
O1717      C1740   1.292       .  A
O1718      C1739   1.291       .  A
O1718     Eu1728   2.455       .  S
O1719      C1740   1.290       .  A
O1719     Eu1729   2.456       .  S
O1720      C1735   1.291       .  A
O1720     Eu1726   2.460       .  S
O1721      C1738   1.291       .  A
O1721     Eu1727   2.466       .  S
O1722      C1737   1.290       .  A
O1723      C1736   1.290       .  A
O1724      C1733   1.293   1_455  A
O1724     Eu1730   2.465   1_565  S
O1725      C1734   1.293       .  A
Eu1726     O1968   2.471       .  S
Eu1726     O1983   2.348       .  S
Eu1726     O1732   2.351       .  S
Eu1727     O1967   2.463       .  S
Eu1727     O1977   2.353       .  S
Eu1727     O1742   2.347       .  S
Eu1728     O1972   2.456       .  S
Eu1728     O1983   2.353   1_545  S
Eu1728     O1732   2.352   1_545  S
Eu1729     O1976   2.346       .  S
Eu1729     O1744   2.356       .  S
Eu1730     O1732   2.353   1_445  S
C1733      C1904   1.485       .  S
C1734      C1894   1.482       .  S
C1735      C1814   1.475       .  S
C1736      C1834   1.468       .  S
C1737      C1844   1.474       .  S
C1738      C1824   1.476       .  S
C1739      C1854   1.475       .  S
C1740      C1864   1.475       .  S
H1741      O1742   0.971       .  S
H1743      O1744   0.960       .  S
N1745      C1750   1.351       .  A
N1745      C1749   1.353       .  A
N1745      H1777   1.041       .  S
N1746      C1753   1.350       .  A
N1746      C1754   1.349       .  A
N1747      C1752   1.350       .  A
N1747      C1751   1.351       .  A
N1747      H1778   1.041       .  S
N1748      C1755   1.349       .  A
N1748      C1756   1.349       .  A
C1749      C1757   1.388       .  A
C1749      C1765   1.416       .  A
C1750      C1766   1.410       .  A
C1750      C1758   1.386       .  A
C1751      C1759   1.388       .  A
C1751      C1768   1.413       .  A
C1752      C1767   1.409       .  A
C1752      C1760   1.386       .  A
C1753      C1765   1.413       .  A
C1753      C1761   1.387       .  A
C1754      C1768   1.411       .  A
C1754      C1762   1.386       .  A
C1755      C1763   1.386       .  A
C1755      C1766   1.408       .  A
C1756      C1764   1.387       .  A
C1756      C1767   1.410       .  A
C1757      C1758   1.377       .  A
C1757      H1769   1.082       .  S
C1758      H1770   1.082       .  S
C1759      C1760   1.377       .  A
C1759      H1771   1.082       .  S
C1760      H1772   1.082       .  S
C1761      C1762   1.374       .  A
C1761      H1773   1.082       .  S
C1762      H1774   1.082       .  S
C1763      C1764   1.374       .  A
C1763      H1775   1.082       .  S
C1764      H1776   1.082       .  S
C1765      C1887   1.493       .  S
C1766      C1877   1.478       .  S
C1767      C1867   1.482       .  S
C1768      C1857   1.489       .  S
N1779      C1784   1.353       .  A
N1779      C1783   1.354       .  A
N1779      H1811   1.038       .  S
N1780      C1787   1.352       .  A
N1780      C1788   1.351       .  A
N1781      C1786   1.353       .  A
N1781      C1785   1.352       .  A
N1781      H1812   1.039       .  S
N1782      C1789   1.351       .  A
N1782      C1790   1.352       .  A
C1783      C1791   1.387       .  A
C1783      C1799   1.417       .  A
C1784      C1800   1.416       .  A
C1784      C1792   1.387       .  A
C1785      C1793   1.387       .  A
C1785      C1802   1.414       .  A
C1786      C1801   1.415       .  A
C1786      C1794   1.387       .  A
C1787      C1799   1.413       .  A
C1787      C1795   1.386       .  A
C1788      C1802   1.412       .  A
C1788      C1796   1.387       .  A
C1789      C1797   1.386       .  A
C1789      C1800   1.412       .  A
C1790      C1798   1.386       .  A
C1790      C1801   1.412       .  A
C1791      C1792   1.376       .  A
C1791      H1803   1.082       .  S
C1792      H1804   1.082       .  S
C1793      C1794   1.376       .  A
C1793      H1805   1.082       .  S
C1794      H1806   1.082       .  S
C1795      C1796   1.371       .  A
C1795      H1807   1.082       .  S
C1796      H1808   1.082       .  S
C1797      C1798   1.372       .  A
C1797      H1809   1.082       .  S
C1798      H1810   1.082       .  S
C1799      C1847   1.490       .  S
C1800      C1827   1.486       .  S
C1801      C1817   1.490       .  S
C1802      C1837   1.484       .  S
C1813      C2090   1.407   1_554  A
C1813      C1818   1.403       .  A
C1813      F1820   1.358       .  S
C1814      C2089   1.405       .  A
C1814      C1815   1.406       .  A
C1815      C1816   1.400       .  A
C1815      F1822   1.356       .  S
C1816      C1817   1.407       .  A
C1816      F1821   1.358       .  S
C1817      C2094   1.405       .  A
C1818      C2093   1.406   1_554  A
C1818      F1819   1.358       .  S
C1823      C2100   1.406       .  A
C1823      C1828   1.400       .  A
C1823      F1830   1.353       .  S
C1824      C2099   1.404       .  A
C1824      C1825   1.405       .  A
C1825      C1826   1.400       .  A
C1825      F1832   1.354       .  S
C1826      C1827   1.405       .  A
C1826      F1831   1.358       .  S
C1827      C2104   1.404       .  A
C1828      C2103   1.404       .  A
C1828      F1829   1.358       .  S
C1833      C1834   1.404       .  A
C1833      C1838   1.396       .  A
C1833      F1840   1.358       .  S
C1834      C1835   1.405       .  A
C1835      C1836   1.398       .  A
C1835      F2118   1.358       .  S
C1836      C1837   1.405       .  A
C1836      F2117   1.358       .  S
C1837      C1838   1.405       .  A
C1838      F1839   1.358       .  S
F1841      C2112   1.358       .  S
F1842      C2111   1.358       .  S
C1843      C1844   1.406       .  A
C1843      C1848   1.401       .  A
C1843      F1850   1.358       .  S
C1844      C1845   1.403       .  A
C1845      C1846   1.397       .  A
C1845      F2128   1.356       .  S
C1846      C1847   1.405       .  A
C1846      F2127   1.357       .  S
C1847      C1848   1.407       .  A
C1848      F1849   1.358       .  S
F1851      C2122   1.358       .  S
F1852      C2121   1.356       .  S
C1853      C1858   1.397       .  A
C1853      F1860   1.358       .  S
C1854      C1855   1.406   1_545  A
C1855      C1856   1.398       .  A
C1855      F1862   1.358       .  S
C1856      F1861   1.358       .  S
C1857      C1858   1.406       .  A
C1858      F1859   1.358       .  S
C1863      C1864   1.404       .  A
C1863      C1868   1.397       .  A
C1863      F1870   1.355       .  S
C1865      C1866   1.399       .  A
C1865      F1872   1.358       .  S
C1866      C1867   1.406       .  A
C1866      F1871   1.358       .  S
C1868      F1869   1.358       .  S
C1873      C1878   1.400       .  A
C1873      F1880   1.357       .  S
C1874      C1875   1.403       .  A
C1875      C1876   1.396       .  A
C1875      F1882   1.356       .  S
C1876      C1877   1.402       .  A
C1876      F1881   1.358       .  S
C1878      F1879   1.357       .  S
C1883      C1888   1.397       .  A
C1883      F1890   1.358       .  S
C1884      C1885   1.408       .  A
C1885      C1886   1.397       .  A
C1885      F1892   1.354       .  S
C1886      C1887   1.405       .  A
C1886      F1891   1.358       .  S
C1888      F1889   1.358       .  S
C1893      C1898   1.400       .  A
C1893      F1900   1.358       .  S
C1894      C1895   1.408   1_455  A
C1895      C1896   1.397       .  A
C1895      F1902   1.354       .  S
C1896      C1897   1.405   1_655  A
C1896      F1901   1.359       .  S
C1898      F1899   1.358       .  S
C1903      C1904   1.410       .  A
C1903      C1908   1.398       .  A
C1903      F1910   1.357       .  S
C1905      C1906   1.398       .  A
C1905      F1912   1.356       .  S
C1906      F1911   1.358       .  S
C1907      C1908   1.408       .  A
C1908      F1909   1.358       .  S
C1913      C1914   1.408   1_455  A
C1913      C1918   1.397       .  A
C1915      C1916   1.399       .  A
C1917      C1918   1.406   1_655  A
C1923      C1924   1.406       .  A
C1923      C1928   1.396       .  A
C1923      F1930   1.359       .  S
C1925      C1926   1.394       .  A
C1925      F1932   1.358       .  S
C1926      F1931   1.357       .  S
C1927      C1928   1.406       .  A
C1928      F1929   1.358       .  S
N1933      C1938   1.351       .  A
N1933      C1937   1.355       .  A
N1933      H1965   1.042       .  S
N1934      C1941   1.352       .  A
N1934      C1942   1.351       .  A
N1935      C1940   1.353       .  A
N1935      C1939   1.352       .  A
N1935      H1966   1.041       .  S
N1936      C1943   1.352       .  A
N1936      C1944   1.353       .  A
C1937      C1945   1.387       .  A
C1937      C1953   1.417       .  A
C1938      C1954   1.413       .  A
C1938      C1946   1.386       .  A
C1939      C1947   1.388       .  A
C1939      C1956   1.418       .  A
C1940      C1955   1.416       .  A
C1940      C1948   1.387       .  A
C1941      C1953   1.415       .  A
C1941      C1949   1.385       .  A
C1942      C1956   1.415       .  A
C1942      C1950   1.387       .  A
C1943      C1951   1.386       .  A
C1943      C1954   1.415       .  A
C1944      C1952   1.386       .  A
C1944      C1955   1.416       .  A
C1945      C1946   1.377       .  A
C1945      H1957   1.082       .  S
C1946      H1958   1.082       .  S
C1947      C1948   1.380       .  A
C1947      H1959   1.082       .  S
C1948      H1960   1.082       .  S
C1949      C1950   1.376       .  A
C1949      H1961   1.082       .  S
C1950      H1962   1.082       .  S
C1951      C1952   1.376       .  A
C1951      H1963   1.082       .  S
C1952      H1964   1.082       .  S
O1967      C1978   1.292       .  A
O1968      C1979   1.294       .  A
O1969      C1980   1.294       .  A
O1969     Eu1975   2.470       .  S
O1970      C1981   1.293       .  A
O1971      C1981   1.289       .  A
O1973      C1979   1.291       .  A
O1974      C1978   1.292   1_455  A
O1974     Eu1975   2.459   1_455  S
Eu1975     O1977   2.360       .  S
C1978      C2200   1.476       .  S
C1979      C2190   1.487       .  S
C1980      C2160   1.484       .  S
C1981      C2150   1.481       .  S
H1982      O1983   0.968       .  S
H1984      O1985   0.970       .  S
O1986      C2009   1.292       .  A
O1986     Eu2002   2.462       .  S
O1987      C2010   1.289       .  A
O1987     Eu2003   2.449   1_556  S
O1988      C2011   1.293   1_554  A
O1988     Eu2004   2.473   1_564  S
O1989      C2012   1.292   1_554  A
O1989     Eu2005   2.458       .  S
O1990      C2013   1.291       .  A
O1991      C2014   1.291       .  A
O1992      C2015   1.293       .  A
O1992     Eu2006   2.464   1_655  S
O1993      C2016   1.292       .  A
O1994      C2015   1.293       .  A
O1994     Eu2004   2.468       .  S
O1995      C2016   1.291       .  A
O1995     Eu2005   2.461   1_546  S
O1996      C2011   1.292       .  A
O1996     Eu2002   2.468       .  S
O1997      C2014   1.292       .  A
O1997     Eu2003   2.468   1_655  S
O1998      C2013   1.291       .  A
O1999      C2012   1.290       .  A
O2000      C2009   1.292   1_455  A
O2000     Eu2006   2.465   1_565  S
O2001      C2010   1.293       .  A
Eu2002     O2008   2.352       .  S
Eu2003     O2018   2.346   1_454  S
Eu2004     O2008   2.353   1_545  S
Eu2005     O2020   2.356   1_554  S
Eu2006     O2008   2.360   1_445  S
C2009      C2180   1.487       .  S
C2010      C2170   1.481       .  S
C2011      C2090   1.483       .  S
C2012      C2110   1.472   1_556  S
C2013      C2120   1.475       .  S
C2014      C2100   1.478       .  S
C2015      C2130   1.483       .  S
C2016      C2140   1.474       .  S
H2017      O2018   0.971       .  S
H2019      O2020   0.965       .  S
N2021      C2026   1.353       .  A
N2021      C2025   1.353       .  A
N2021      H2053   1.042       .  S
N2022      C2029   1.352       .  A
N2022      C2030   1.352       .  A
N2023      C2028   1.352       .  A
N2023      C2027   1.353       .  A
N2023      H2054   1.041       .  S
N2024      C2031   1.351       .  A
N2024      C2032   1.351       .  A
C2025      C2033   1.387       .  A
C2025      C2041   1.416       .  A
C2026      C2042   1.415       .  A
C2026      C2034   1.387       .  A
C2027      C2035   1.388       .  A
C2027      C2044   1.415       .  A
C2028      C2043   1.413       .  A
C2028      C2036   1.386       .  A
C2029      C2041   1.416       .  A
C2029      C2037   1.387       .  A
C2030      C2044   1.415       .  A
C2030      C2038   1.386       .  A
C2031      C2039   1.387       .  A
C2031      C2042   1.414       .  A
C2032      C2040   1.386       .  A
C2032      C2043   1.412       .  A
C2033      C2034   1.378       .  A
C2033      H2045   1.082       .  S
C2034      H2046   1.082       .  S
C2035      C2036   1.376       .  A
C2035      H2047   1.082       .  S
C2036      H2048   1.082       .  S
C2037      C2038   1.375       .  A
C2037      H2049   1.082       .  S
C2038      H2050   1.082       .  S
C2039      C2040   1.374       .  A
C2039      H2051   1.082       .  S
C2040      H2052   1.082       .  S
C2041      C2163   1.498       .  S
C2042      C2153   1.495       .  S
C2043      C2143   1.489       .  S
C2044      C2133   1.495       .  S
N2055      C2060   1.350   1_554  A
N2055      C2059   1.352   1_554  A
N2055      H2087   1.041       .  S
N2056      C2063   1.349       .  A
N2056      C2064   1.348       .  A
N2057      C2062   1.353   1_554  A
N2057      C2061   1.352   1_554  A
N2057      H2088   1.041       .  S
N2058      C2065   1.351   1_556  A
N2058      C2066   1.352   1_556  A
C2059      C2067   1.387       .  A
C2059      C2075   1.413   1_556  A
C2060      C2076   1.410   1_556  A
C2060      C2068   1.386       .  A
C2061      C2069   1.388       .  A
C2061      C2078   1.416   1_556  A
C2062      C2077   1.414       .  A
C2062      C2070   1.386       .  A
C2063      C2075   1.409       .  A
C2063      C2071   1.386       .  A
C2064      C2078   1.409       .  A
C2064      C2072   1.387       .  A
C2065      C2073   1.386       .  A
C2065      C2076   1.411       .  A
C2066      C2074   1.386       .  A
C2066      C2077   1.412   1_554  A
C2067      C2068   1.377       .  A
C2067      H2079   1.082       .  S
C2068      H2080   1.082       .  S
C2069      C2070   1.379       .  A
C2069      H2081   1.082       .  S
C2070      H2082   1.082       .  S
C2071      C2072   1.373       .  A
C2071      H2083   1.082       .  S
C2072      H2084   1.082       .  S
C2073      C2074   1.374       .  A
C2073      H2085   1.082       .  S
C2074      H2086   1.082       .  S
C2075      C2123   1.487       .  S
C2076      C2103   1.484       .  S
C2077      C2093   1.491       .  S
C2078      C2113   1.485       .  S
C2089      C2094   1.399       .  A
C2089      F2096   1.358       .  S
C2090      C2091   1.406       .  A
C2091      C2092   1.400       .  A
C2091      F2098   1.355       .  S
C2092      C2093   1.405       .  A
C2092      F2097   1.358       .  S
C2094      F2095   1.358       .  S
C2099      C2104   1.399       .  A
C2099      F2106   1.356       .  S
C2100      C2101   1.404   1_554  A
C2101      C2102   1.398       .  A
C2101      F2108   1.354       .  S
C2102      C2103   1.403   1_556  A
C2102      F2107   1.358       .  S
C2104      F2105   1.357       .  S
C2109      C2110   1.407   1_556  A
C2109      C2114   1.399       .  A
C2109      F2116   1.359       .  S
C2110      C2111   1.405       .  A
C2111      C2112   1.395       .  A
C2112      C2113   1.403       .  A
C2113      C2114   1.408   1_554  A
C2114      F2115   1.358       .  S
C2119      C2120   1.406   1_556  A
C2119      C2124   1.397       .  A
C2119      F2126   1.358       .  S
C2120      C2121   1.406       .  A
C2121      C2122   1.397       .  A
C2122      C2123   1.405       .  A
C2123      C2124   1.407   1_554  A
C2124      F2125   1.358       .  S
C2129      C2134   1.400       .  A
C2129      F2136   1.358       .  S
C2130      C2131   1.407   1_545  A
C2131      C2132   1.400       .  A
C2131      F2138   1.358       .  S
C2132      F2137   1.358       .  S
C2133      C2134   1.409       .  A
C2134      F2135   1.358       .  S
C2139      C2140   1.403   1_565  A
C2139      C2144   1.396       .  A
C2139      F2146   1.355       .  S
C2141      C2142   1.400       .  A
C2141      F2148   1.358       .  S
C2142      C2143   1.408       .  A
C2142      F2147   1.358       .  S
C2144      F2145   1.358       .  S
C2149      C2154   1.403       .  A
C2149      F2156   1.356       .  S
C2150      C2151   1.406       .  A
C2151      C2152   1.398       .  A
C2151      F2158   1.356       .  S
C2152      C2153   1.408       .  A
C2152      F2157   1.358       .  S
C2154      F2155   1.357       .  S
C2159      C2164   1.398       .  A
C2159      F2166   1.358       .  S
C2160      C2161   1.408       .  A
C2161      C2162   1.402       .  A
C2161      F2168   1.357       .  S
C2162      C2163   1.409       .  A
C2162      F2167   1.358       .  S
C2164      F2165   1.358       .  S
C2169      C2174   1.403       .  A
C2169      F2176   1.358       .  S
C2170      C2171   1.406   1_455  A
C2171      C2172   1.399       .  A
C2171      F2178   1.356       .  S
C2172      C2173   1.407   1_655  A
C2172      F2177   1.358       .  S
C2174      F2175   1.357       .  S
C2179      C2180   1.409       .  A
C2179      C2184   1.399       .  A
C2179      F2186   1.355       .  S
C2181      C2182   1.400       .  A
C2181      F2188   1.355       .  S
C2182      F2187   1.358       .  S
C2183      C2184   1.406   1_455  A
C2184      F2185   1.358       .  S
C2189      C2190   1.409   1_455  A
C2189      C2194   1.399       .  A
C2191      C2192   1.403       .  A
C2193      C2194   1.409   1_655  A
C2199      C2200   1.406       .  A
C2199      C2204   1.401       .  A
C2199      F2206   1.358       .  S
C2201      C2202   1.398       .  A
C2201      F2208   1.358       .  S
C2202      F2207   1.358       .  S
C2203      C2204   1.410   1_455  A
C2204      F2205   1.358       .  S
