geometry optimzed in LAMMPS
_audit_creation_date              2020-11-30 
_audit_creation_method            'lammps2cif' 
_symmetry_space_group_name_H-M    'P1' 
_symmetry_Int_Tables_number       1 
_symmetry_cell_setting            triclinic 
loop_ 
_symmetry_equiv_pos_as_xyz 
  x,y,z 
_cell_length_a                    31.58119775847128 
_cell_length_b                    31.803793093246163 
_cell_length_c                    67.94849038286162 
_cell_angle_alpha                 89.12930099596186 
_cell_angle_beta                  90.81230162278494 
_cell_angle_gamma                 90.10129083203739 
loop_ 
_atom_site_label 
_atom_site_type_symbol 
_atom_site_fract_x 
_atom_site_fract_y 
_atom_site_fract_z 
_atom_site_charge 
In1        In  0.94041358  0.85151401  0.07964883     1.36870
C2          C  0.92070640  0.83479152  0.04248518     0.77550
O3          O  0.88305157  0.89310918  0.08217010    -0.60900
O4          O  0.94437910  0.92021728  0.08498277    -0.51810
C5          C  0.92548656  0.80889337  0.11284409     0.70210
O6          O  0.95677681  0.80160769  0.10217434    -0.46670
C7          C  0.02380806  0.85937547  0.07990486     0.74920
O8          O  0.91622788  0.80718046  0.05589156    -0.58530
O9          O  0.99956282  0.88209032  0.08975744    -0.48620
O10         O  0.93343528  0.86980539  0.04844194    -0.54960
C11         C  0.90484996  0.92591442  0.08500716     0.85100
O12         O  0.89868093  0.83299336  0.10482465    -0.56850
O13         O  0.00541577  0.83045563  0.07055217    -0.60140
In14       In  0.95511563  0.86010513  0.92318492     1.36870
C15         C  0.93230866  0.83999853  0.95931712     0.77550
O16         O  0.00623150  0.81070011  0.92341039    -0.60900
O17         O  0.02283901  0.87575810  0.92548468    -0.51810
C18         C  0.94533965  0.84462554  0.88537586     0.70210
O19         O  0.92502449  0.82339855  0.89817519    -0.46670
C20         C  0.92039173  0.93588775  0.92078099     0.74920
O21         O  0.91723144  0.82017475  0.94472090    -0.58530
O22         O  0.95931931  0.92915059  0.92392468    -0.48620
O23         O  0.95934435  0.86768683  0.95518446    -0.54960
C24         C  0.03515544  0.83817545  0.92439095     0.85100
O25         O  0.96987868  0.87178444  0.89239538    -0.56850
O26         O  0.89833835  0.90285645  0.91936591    -0.60140
In27       In  0.28095726  0.92600855  0.08030714     1.36870
C28         C  0.30732576  0.91136164  0.04411688     0.77550
O29         O  0.23463373  0.87202041  0.07438839    -0.60900
O30         O  0.21269775  0.93053244  0.08440672    -0.51810
C31         C  0.31906648  0.91292181  0.11483183     0.70210
O32         O  0.33515469  0.93548458  0.10154417    -0.46670
C33         C  0.26633674  0.00770547  0.08250294     0.74920
O34         O  0.31593385  0.88639526  0.05826174    -0.58530
O35         O  0.24168805  0.97966153  0.08877289    -0.48620
O36         O  0.28771621  0.94386544  0.04885983    -0.54960
C37         C  0.20314715  0.89421360  0.07886035     0.85100
O38         O  0.28816929  0.89122803  0.10901502    -0.56850
O39         O  0.30077149  0.99390212  0.07584935    -0.60140
In40       In  0.26980663  0.92270367  0.92548548     1.36870
C41         C  0.30067662  0.90615660  0.96108746     0.77550
O42         O  0.29839919  0.98775782  0.92778753    -0.60900
O43         O  0.23181915  0.97892518  0.92920485    -0.51810
C44         C  0.28972533  0.92614400  0.88795440     0.70210
O45         O  0.31210196  0.90512069  0.90026697    -0.46670
C46         C  0.20551229  0.87056268  0.92320127     0.74920
O47         O  0.32485892  0.90760841  0.94635251    -0.58530
O48         O  0.20205605  0.90885016  0.92729878    -0.48620
O49         O  0.26196512  0.91049046  0.95717964    -0.54960
C50         C  0.26236601  0.00451171  0.92918018     0.85100
O51         O  0.25796831  0.94373768  0.89508465    -0.56850
O52         O  0.24280549  0.85775523  0.92025973    -0.60140
In53       In  0.18811555  0.25967113  0.08017030     1.36870
C54         C  0.20023062  0.27791845  0.04229925     0.77550
O55         O  0.24303011  0.21508608  0.07665451    -0.60900
O56         O  0.18445744  0.19261986  0.08769364    -0.51810
C57         C  0.20768308  0.29541917  0.11406197     0.70210
O58         O  0.18066123  0.31087833  0.10226210    -0.46670
C59         C  0.10496270  0.25183928  0.08374274     0.74920
O60         O  0.21721453  0.29997051  0.05563167    -0.58530
O61         O  0.13136085  0.22388991  0.08876268    -0.48620
O62         O  0.17705900  0.24879349  0.04863259    -0.54960
C63         C  0.22149105  0.18381133  0.08244486     0.85100
O64         O  0.23012832  0.26722440  0.10670197    -0.56850
O65         O  0.12163324  0.28524971  0.07718214    -0.60140
In66       In  0.17955379  0.25614297  0.92234441     1.36870
C67         C  0.20265555  0.28435259  0.95755233     0.77550
O68         O  0.11712905  0.28829995  0.91584807    -0.60900
O69         O  0.11798403  0.22700477  0.92896829    -0.51810
C70         C  0.19418441  0.27616251  0.88496705     0.70210
O71         O  0.20345972  0.30180795  0.89849105    -0.46670
C72         C  0.20808992  0.17754891  0.92514333     0.74920
O73         O  0.16798685  0.29437402  0.94948861    -0.58530
O74         O  0.16985866  0.18779740  0.92683452    -0.48620
O75         O  0.22850421  0.26727235  0.94623975    -0.54960
C76         C  0.09617239  0.25652734  0.92149793     0.85100
O77         O  0.17902152  0.24207491  0.89100426    -0.56850
O78         O  0.23248698  0.20830825  0.92172156    -0.60140
In79       In  0.84768846  0.18082616  0.07742178     1.36870
C80         C  0.82175889  0.20557522  0.04154260     0.77550
O81         O  0.89850255  0.23136925  0.07568136    -0.60900
O82         O  0.91361833  0.17105365  0.08709834    -0.51810
C83         C  0.81340894  0.19198889  0.11251782     0.70210
O84         O  0.79656586  0.16934762  0.09954765    -0.46670
C85         C  0.85329821  0.09777510  0.07824522     0.74920
O86         O  0.80702850  0.22202306  0.05679105    -0.58530
O87         O  0.88452345  0.12219422  0.07699962    -0.48620
O88         O  0.84845423  0.17709983  0.04480933    -0.54960
C89         C  0.92696926  0.20702243  0.08256654     0.85100
O90         O  0.84326664  0.21454612  0.10624086    -0.56850
O91         O  0.81768600  0.11582122  0.07754207    -0.60140
In92       In  0.84309716  0.19086910  0.92342150     1.36870
C93         C  0.81309852  0.21119528  0.95866456     0.77550
O94         O  0.82790598  0.12100174  0.92206117    -0.60900
O95         O  0.89120734  0.14087997  0.91959774    -0.51810
C96         C  0.80854570  0.19770811  0.88743692     0.70210
O97         O  0.78895725  0.18052858  0.90147593    -0.46670
C98         C  0.91767124  0.22845390  0.92354523     0.74920
O99         O  0.81637169  0.23801524  0.94492838    -0.58530
O100        O  0.91052494  0.19304277  0.93148350    -0.48620
O101        O  0.81973663  0.17411343  0.95354702    -0.54960
C102        C  0.86606211  0.11030178  0.91988843     0.85100
O103        O  0.84174462  0.21631888  0.89275541    -0.56850
O104        O  0.88518097  0.24747980  0.91700464    -0.60140
In105      In  0.35253796  0.42542610  0.92356959     1.36870
C106        C  0.31685987  0.40755271  0.95787680     0.77550
O107        O  0.39077859  0.36681584  0.91969119    -0.60900
O108        O  0.41944670  0.41997720  0.93319733    -0.51810
C109        C  0.33173137  0.42151001  0.88585881     0.70210
O110        O  0.30495450  0.41170030  0.89889725    -0.46670
C111        C  0.36390927  0.50719649  0.92350624     0.74920
O112        O  0.32594982  0.37914276  0.94589636    -0.58530
O113        O  0.39257955  0.48113315  0.92807033    -0.48620
O114        O  0.31911998  0.44414399  0.95080168    -0.54960
C115        C  0.42380571  0.38306141  0.92702208     0.85100
O116        O  0.36809272  0.42984771  0.89229062    -0.56850
O117        O  0.32818346  0.49099185  0.91964025    -0.60140
In118      In  0.35490111  0.42572455  0.07723249     1.36870
C119        C  0.32436585  0.41480167  0.04127957     0.77550
O120        O  0.32265798  0.48805356  0.08124958    -0.60900
O121        O  0.38955946  0.48556039  0.07865098    -0.51810
C122        C  0.33566664  0.41133672  0.11439928     0.70210
O123        O  0.30733059  0.41021523  0.10097316    -0.46670
C124        C  0.42140793  0.37698369  0.07462013     0.74920
O125        O  0.30899608  0.39518843  0.05589480    -0.58530
O126        O  0.42340265  0.41654239  0.07366675    -0.48620
O127        O  0.35314564  0.44070543  0.04535220    -0.54960
C128        C  0.35728802  0.50800257  0.08131062     0.85100
O129        O  0.37250311  0.41773950  0.10835135    -0.56850
O130        O  0.38478402  0.36156634  0.07656454    -0.60140
In131      In  0.42432555  0.76209474  0.92460940     1.36870
C132        C  0.39680867  0.79837419  0.95700886     0.77550
O133        O  0.37183919  0.71564179  0.91816426    -0.60900
O134        O  0.42657510  0.69643326  0.93457711    -0.51810
C135        C  0.42136330  0.77845894  0.88608564     0.70210
O136        O  0.40867531  0.80526550  0.89830422    -0.46670
C137        C  0.50659104  0.75364114  0.93041004     0.74920
O138        O  0.37222486  0.77941907  0.94537121    -0.58530
O139        O  0.47960319  0.72645478  0.93521674    -0.48620
O140        O  0.43267221  0.80581418  0.94991514    -0.54960
C141        C  0.39263063  0.68575000  0.92605836     0.85100
O142        O  0.43512254  0.74519660  0.89382681    -0.56850
O143        O  0.49096397  0.78701430  0.92298484    -0.60140
In144      In  0.42094917  0.76184130  0.07672271     1.36870
C145        C  0.39755938  0.79348839  0.04158050     0.77550
O146        O  0.48632165  0.78921914  0.08118180    -0.60900
O147        O  0.47917064  0.73039634  0.06746329    -0.51810
C148        C  0.40799440  0.78594692  0.11328932     0.70210
O149        O  0.39060170  0.80540063  0.09891818    -0.46670
C150        C  0.39326920  0.68425397  0.08059052     0.74920
O151        O  0.42194733  0.81277099  0.05317645    -0.58530
O152        O  0.42920457  0.69389340  0.07416097    -0.48620
O153        O  0.38045598  0.76166389  0.04934395    -0.54960
C154        C  0.50436442  0.75758529  0.07412154     0.85100
O155        O  0.43115896  0.75583617  0.10867240    -0.56850
O156        O  0.36908664  0.71509468  0.08374019    -0.60140
In157      In  0.75708453  0.67628008  0.92157396     1.36870
C158        C  0.78602776  0.69403507  0.95720782     0.77550
O159        O  0.71551918  0.73361743  0.92421340    -0.60900
O160        O  0.68850115  0.67241797  0.92578082    -0.51810
C161        C  0.78352302  0.68983504  0.88508158     0.70210
O162        O  0.80751381  0.67370867  0.89817938    -0.46670
C163        C  0.74406311  0.59446864  0.91832938     0.74920
O164        O  0.79247322  0.71900663  0.94292779    -0.58530
O165        O  0.71544997  0.62178910  0.91681067    -0.48620
O166        O  0.77096238  0.65901020  0.95256600    -0.54960
C167        C  0.68258587  0.71151682  0.92643370     0.85100
O168        O  0.74964329  0.70389313  0.89168569    -0.56850
O169        O  0.78075587  0.60946133  0.92129993    -0.60140
In170      In  0.75721236  0.68023567  0.07843811     1.36870
C171        C  0.77511019  0.69531032  0.04066443     0.77550
O172        O  0.77991821  0.61403710  0.07405340    -0.60900
O173        O  0.72101490  0.62400368  0.08776991    -0.51810
C174        C  0.79699353  0.69966799  0.11187416     0.70210
O175        O  0.81055533  0.67200760  0.10052259    -0.46670
C176        C  0.68050476  0.71210356  0.07830379     0.74920
O177        O  0.79618988  0.71283868  0.05426655    -0.58530
O178        O  0.68955557  0.67742578  0.08647550    -0.48620
O179        O  0.74832640  0.66917395  0.04666346    -0.54960
C180        C  0.74684866  0.59777970  0.08116602     0.85100
O181        O  0.76777513  0.72176100  0.10437273    -0.56850
O182        O  0.71164143  0.73299225  0.07195186    -0.60140
In183      In  0.68085934  0.33725594  0.92404719     1.36870
C184        C  0.70675859  0.30533762  0.95874403     0.77550
O185        O  0.73327818  0.38532216  0.92139553    -0.60900
O186        O  0.67015536  0.40573526  0.92529624    -0.51810
C187        C  0.69365350  0.31132016  0.88768896     0.70210
O188        O  0.70102677  0.28728812  0.90233915    -0.46670
C189        C  0.59786259  0.33842322  0.92770923     0.74920
O190        O  0.73112140  0.32513245  0.94738293    -0.58530
O191        O  0.62224220  0.36527302  0.93527293    -0.48620
O192        O  0.67166912  0.29646797  0.95089599    -0.54960
C193        C  0.70819712  0.41605962  0.92254211     0.85100
O194        O  0.68114123  0.34741409  0.89185963    -0.56850
O195        O  0.61613757  0.31030303  0.91801517    -0.60140
In196      In  0.67519122  0.34301986  0.07544451     1.36870
C197        C  0.70341786  0.30942150  0.04241283     0.77550
O198        O  0.61621588  0.30789835  0.08345628    -0.60900
O199        O  0.61128929  0.36030241  0.06373573    -0.51810
C200        C  0.69414645  0.32865812  0.11293937     0.70210
O201        O  0.71083443  0.30671128  0.09969029    -0.46670
C202        C  0.69765277  0.42287234  0.07595917     0.74920
O203        O  0.68317159  0.28804382  0.05490498    -0.58530
O204        O  0.66097501  0.41074498  0.07104570    -0.48620
O205        O  0.71350128  0.34546636  0.04818634    -0.54960
C206        C  0.59243360  0.33238744  0.07366494     0.85100
O207        O  0.66850258  0.35591275  0.10671433    -0.56850
O208        O  0.72373563  0.39345160  0.07948907    -0.60140
In209      In  0.85428509  0.93015844  0.57755577     1.36870
C210        C  0.82865493  0.91789758  0.54060100     0.77550
O211        O  0.83663276  0.99803494  0.57744820    -0.60900
O212        O  0.90166308  0.98166024  0.57793552    -0.51810
C213        C  0.81699668  0.92662094  0.61211342     0.70210
O214        O  0.80663360  0.95321453  0.59905263    -0.46670
C215        C  0.92206581  0.88401002  0.58453848     0.74920
O216        O  0.80932838  0.90096414  0.55486640    -0.58530
O217        O  0.91987396  0.92257737  0.58827728    -0.48620
O218        O  0.85981933  0.94008065  0.54546664    -0.54960
C219        C  0.87457871  0.01069686  0.57816906     0.85100
O220        O  0.83926808  0.89686123  0.60608454    -0.56850
O221        O  0.88920313  0.86845338  0.57664220    -0.60140
In222      In  0.85110604  0.92832095  0.41973506     1.36870
C223        C  0.82937013  0.91246932  0.45699549     0.77550
O224        O  0.89132974  0.87012049  0.41563099    -0.60900
O225        O  0.91933824  0.93079749  0.41314220    -0.51810
C226        C  0.81060529  0.91718309  0.38554104     0.70210
O227        O  0.80901824  0.95067888  0.39500137    -0.46670
C228        C  0.86384520  0.01091236  0.42025953     0.74920
O229        O  0.80275691  0.90956448  0.44303322    -0.58530
O230        O  0.89014831  0.98481009  0.41403205    -0.48620
O231        O  0.86659935  0.91955725  0.45166502    -0.54960
C232        C  0.92413258  0.89160758  0.41195468     0.85100
O233        O  0.82751651  0.88710483  0.39502761    -0.56850
O234        O  0.82929373  0.99461438  0.42563553    -0.60140
In235      In  0.18060877  0.86248825  0.42249398     1.36870
C236        C  0.18606442  0.84521283  0.46037301     0.77550
O237        O  0.24723919  0.88664083  0.42363960    -0.60900
O238        O  0.19493963  0.92979807  0.42362852    -0.51810
C239        C  0.19083470  0.84433981  0.38552528     0.70210
O240        O  0.19983075  0.81724261  0.39894353    -0.46670
C241        C  0.09802803  0.85593094  0.41681714     0.74920
O242        O  0.20391563  0.82149637  0.44805141    -0.58530
O243        O  0.11759641  0.89054528  0.41822445    -0.48620
O244        O  0.16628151  0.87607488  0.45298648    -0.54960
C245        C  0.23457764  0.92434947  0.42422668     0.85100
O246        O  0.18091295  0.88027226  0.39148875    -0.56850
O247        O  0.12070390  0.82356433  0.41969304    -0.60140
In248      In  0.17540896  0.84895842  0.58304582     1.36870
C249        C  0.18762164  0.83872870  0.54505399     0.77550
O250        O  0.11548110  0.81136154  0.57938676    -0.60900
O251        O  0.11335828  0.86975888  0.59407641    -0.51810
C252        C  0.20187996  0.81166015  0.61595070     0.70210
O253        O  0.18755055  0.79052992  0.60176561    -0.46670
C254        C  0.20309910  0.92690940  0.58426268     0.74920
O255        O  0.21100144  0.82007578  0.55771495    -0.58530
O256        O  0.16514654  0.91670599  0.58760847    -0.48620
O257        O  0.15915185  0.86122262  0.55215460    -0.54960
C258        C  0.09309406  0.83857434  0.58761707     0.85100
O259        O  0.20856609  0.84965365  0.61179284    -0.56850
O260        O  0.22715408  0.89641081  0.58050927    -0.60140
In261      In  0.26998878  0.17121019  0.42632769     1.36870
C262        C  0.30268777  0.19404610  0.46063292     0.77550
O263        O  0.22551381  0.22678744  0.42502754    -0.60900
O264        O  0.20137996  0.16549845  0.43029685    -0.51810
C265        C  0.28341484  0.17775180  0.38793298     0.70210
O266        O  0.31115620  0.18950302  0.40039059    -0.46670
C267        C  0.28396378  0.09010347  0.42689759     0.74920
O268        O  0.30965956  0.21546276  0.44512603    -0.58530
O269        O  0.24928756  0.10618221  0.43178998    -0.48620
O270        O  0.28062569  0.16166208  0.45818504    -0.54960
C271        C  0.19320733  0.20397640  0.42765257     0.85100
O272        O  0.24919748  0.16600490  0.39551719    -0.56850
O273        O  0.31291883  0.11574954  0.42230837    -0.60140
In274      In  0.27347017  0.18222042  0.57718614     1.36870
C275        C  0.30858701  0.20210499  0.54287331     0.77550
O276        O  0.28573302  0.11330631  0.57476105    -0.60900
O277        O  0.22689921  0.13296047  0.58597067    -0.51810
C278        C  0.30918174  0.18857593  0.61271026     0.70210
O279        O  0.32754696  0.17061309  0.59883536    -0.46670
C280        C  0.20026706  0.22080723  0.57131170     0.74920
O281        O  0.30335911  0.22926284  0.55594592    -0.58530
O282        O  0.20773081  0.18420139  0.56538422    -0.48620
O283        O  0.30087650  0.16511070  0.54839997    -0.54960
C284        C  0.24995389  0.10263165  0.58121375     0.85100
O285        O  0.27615037  0.20797033  0.60760430    -0.56850
O286        O  0.23124790  0.23852931  0.57973636    -0.60140
In287      In  0.93377215  0.26472129  0.42620629     1.36870
C288        C  0.90698583  0.30407219  0.45816090     0.77550
O289        O  0.87982606  0.21939104  0.42009331    -0.60900
O290        O  0.93434745  0.19841462  0.43601512    -0.51810
C291        C  0.93150701  0.28486537  0.38795672     0.70210
O292        O  0.92736599  0.31280215  0.40087451    -0.46670
C293        C  0.01640591  0.25114507  0.42842952     0.74920
O294        O  0.88155171  0.28881795  0.44570192    -0.58530
O295        O  0.98929905  0.22780011  0.43647747    -0.48620
O296        O  0.94473006  0.30493360  0.45254742    -0.54960
C297        C  0.89976788  0.18867537  0.42776264     0.85100
O298        O  0.93252027  0.24811155  0.39490288    -0.56850
O299        O  0.00149195  0.28425674  0.42054857    -0.60140
In300      In  0.94294416  0.26560830  0.57386650     1.36870
C301        C  0.91058131  0.30159594  0.54111667     0.77550
O302        O  0.00760897  0.29517252  0.57545355    -0.60900
O303        O  0.99963031  0.23760907  0.56051300    -0.51810
C304        C  0.93650169  0.28295421  0.61178321     0.70210
O305        O  0.91374894  0.30197036  0.59899864    -0.46670
C306        C  0.91487422  0.18775594  0.57681981     0.74920
O307        O  0.93404864  0.32139206  0.55296331    -0.58530
O308        O  0.95128307  0.19734626  0.57082303    -0.48620
O309        O  0.89953975  0.26600825  0.54753082    -0.54960
C310        C  0.02493148  0.26526587  0.56657535     0.85100
O311        O  0.96283022  0.25787740  0.60493450    -0.56850
O312        O  0.89172588  0.21878433  0.58082275    -0.60140
In313      In  0.31038449  0.44788416  0.23536385     1.36870
C314        C  0.37533367  0.39910877  0.24724623     0.77550
O315        O  0.27620787  0.39895280  0.25352545    -0.60900
O316        O  0.23987013  0.43628022  0.23356549    -0.51810
C317        C  0.30935507  0.53003423  0.24541102     0.70210
O318        O  0.32894314  0.50230838  0.25527352    -0.46670
C319        C  0.31350915  0.43348286  0.19708324     0.74920
O320        O  0.34543009  0.40917892  0.25839239    -0.58530
O321        O  0.28286497  0.42221798  0.20750721    -0.48620
O322        O  0.37393553  0.41657029  0.23045980    -0.54960
C323        C  0.24107792  0.40473851  0.24495906     0.85100
O324        O  0.29047439  0.51603035  0.23055710    -0.56850
O325        O  0.34278412  0.45250671  0.20619361    -0.60140
In326      In  0.16187227  0.30512441  0.23574727     1.36870
C327        C  0.20895331  0.24041681  0.24854457     0.77550
O328        O  0.16985885  0.27096542  0.20730175    -0.60900
O329        O  0.17955965  0.33680043  0.20717997    -0.51810
C330        C  0.07950708  0.30426642  0.24644105     0.70210
O331        O  0.10963659  0.29710139  0.25826336    -0.46670
C332        C  0.20786343  0.37258861  0.24495082     0.74920
O333        O  0.18770091  0.23891571  0.23269503    -0.58530
O334        O  0.17541515  0.37497850  0.23397837    -0.48620
O335        O  0.20319568  0.27311493  0.25841539    -0.54960
C336        C  0.18032187  0.30332097  0.19754307     0.85100
O337        O  0.09113428  0.31176382  0.22918392    -0.56850
O338        O  0.21337165  0.33728844  0.25312438    -0.60140
In339      In  0.80774321  0.45423724  0.26233943     1.36870
C340        C  0.74227363  0.40513722  0.25216070     0.77550
O341        O  0.83789603  0.39968827  0.24684284    -0.60900
O342        O  0.87760746  0.43801468  0.26425437    -0.51810
C343        C  0.80196578  0.53528499  0.25006558     0.70210
O344        O  0.81855345  0.50710749  0.23986236    -0.46670
C345        C  0.81345212  0.45270195  0.30123561     0.74920
O346        O  0.75790895  0.43182855  0.24032741    -0.58530
O347        O  0.84481175  0.46102494  0.29055890    -0.48620
O348        O  0.75810020  0.40581459  0.26924623    -0.54960
C349        C  0.87381387  0.40469889  0.25464535     0.85100
O350        O  0.78694801  0.52185650  0.26598592    -0.56850
O351        O  0.77891022  0.44746244  0.29202975    -0.60140
In352      In  0.95357909  0.30405968  0.26417556     1.36870
C353        C  0.90668518  0.23733451  0.25376363     0.77550
O354        O  0.95976473  0.26905539  0.29261794    -0.60900
O355        O  0.94791593  0.33433924  0.29386853    -0.51810
C356        C  0.03478169  0.30400110  0.25237456     0.70210
O357        O  0.00454614  0.31512234  0.24118167    -0.46670
C358        C  0.90584740  0.37125639  0.25522224     0.74920
O359        O  0.93535530  0.25202381  0.24283439    -0.58530
O360        O  0.93974926  0.37384944  0.26512516    -0.48620
O361        O  0.90338852  0.25563911  0.26992398    -0.54960
C362        C  0.95333161  0.30028940  0.30336880     0.85100
O363        O  0.02356027  0.29271371  0.26928915    -0.56850
O364        O  0.89885699  0.33553370  0.24815816    -0.60140
In365      In  0.30275351  0.65492563  0.26288530     1.36870
C366        C  0.36842400  0.70394932  0.25301526     0.77550
O367        O  0.27357117  0.70954841  0.24581743    -0.60900
O368        O  0.23389575  0.67372709  0.26446831    -0.51810
C369        C  0.30795701  0.57469100  0.25094184     0.70210
O370        O  0.32890091  0.58884156  0.26521841    -0.46670
C371        C  0.29702071  0.64959221  0.30185814     0.74920
O372        O  0.35327070  0.67666233  0.24153060    -0.58530
O373        O  0.26499240  0.64764755  0.29062815    -0.48620
O374        O  0.35142140  0.70459683  0.26967206    -0.54960
C375        C  0.23809540  0.70625198  0.25389184     0.85100
O376        O  0.28527128  0.60182401  0.24212590    -0.56850
O377        O  0.33153681  0.65432180  0.29299254    -0.60140
In378      In  0.16478047  0.81048022  0.26316452     1.36870
C379        C  0.21316802  0.87665712  0.25330652     0.77550
O380        O  0.14907474  0.84480934  0.29053378    -0.60900
O381        O  0.18611935  0.78949937  0.29332238    -0.51810
C382        C  0.08241819  0.81010386  0.25185105     0.70210
O383        O  0.11140602  0.82394831  0.24096041    -0.46670
C384        C  0.20738164  0.74088392  0.25391323     0.74920
O385        O  0.18557812  0.86196631  0.24163472    -0.58530
O386        O  0.17485685  0.74001584  0.26435264    -0.48620
O387        O  0.21440529  0.85893522  0.26994058    -0.54960
C388        C  0.16888322  0.81973032  0.30193114     0.85100
O389        O  0.09546605  0.79606008  0.26820326    -0.56850
O390        O  0.21479379  0.77611287  0.24606748    -0.60140
In391      In  0.80371882  0.66316300  0.23410068     1.36870
C392        C  0.73705245  0.70741758  0.24578838     0.77550
O393        O  0.83308856  0.71956365  0.24847260    -0.60900
O394        O  0.87463479  0.67378489  0.23751869    -0.51810
C395        C  0.80135274  0.58028730  0.24430389     0.70210
O396        O  0.79450515  0.60926426  0.25621908    -0.46670
C397        C  0.80710176  0.68025392  0.19568459     0.74920
O398        O  0.74023887  0.69451227  0.22839689    -0.58530
O399        O  0.83975471  0.67739225  0.20645708    -0.48620
O400        O  0.76574020  0.69441205  0.25749826    -0.54960
C401        C  0.87050957  0.70994024  0.24455355     0.85100
O402        O  0.80865866  0.59333756  0.22717932    -0.56850
O403        O  0.77284075  0.67243040  0.20438682    -0.60140
In404      In  0.95503576  0.80550201  0.23480674     1.36870
C405        C  0.90961411  0.87255170  0.24511103     0.77550
O406        O  0.94351520  0.83110183  0.20437986    -0.60900
O407        O  0.95776537  0.76610194  0.20760504    -0.51810
C408        C  0.03718121  0.80977861  0.24605215     0.70210
O409        O  0.00903655  0.79281605  0.25645440    -0.46670
C410        C  0.90437377  0.74146320  0.24463971     0.74920
O411        O  0.93352960  0.85306956  0.25722740    -0.58530
O412        O  0.93932897  0.73594645  0.23642491    -0.48620
O413        O  0.91156255  0.85976959  0.22770730    -0.54960
C414        C  0.94757558  0.79606812  0.19616913     0.85100
O415        O  0.02330223  0.82594465  0.23023848    -0.56850
O416        O  0.89804791  0.77849461  0.25004656    -0.60140
In417      In  0.44799658  0.79970180  0.23445039     1.36870
C418        C  0.40047599  0.73520772  0.24705334     0.77550
O419        O  0.39909246  0.83322745  0.25202947    -0.60900
O420        O  0.44016378  0.87027234  0.23449748    -0.51810
C421        C  0.53151654  0.79888161  0.24418239     0.70210
O422        O  0.50344088  0.78302977  0.25494082    -0.46670
C423        C  0.42725322  0.79839189  0.19630328     0.74920
O424        O  0.41155801  0.76515041  0.25798914    -0.58530
O425        O  0.41975921  0.82935472  0.20698367    -0.48620
O426        O  0.41655748  0.73629156  0.23016728    -0.54960
C427        C  0.40753833  0.86894318  0.24492877     0.85100
O428        O  0.51725399  0.81455238  0.22840663    -0.56850
O429        O  0.44651939  0.76852892  0.20498582    -0.60140
In430      In  0.31166741  0.95266425  0.23603252     1.36870
C431        C  0.24462471  0.90865266  0.24774413     0.77550
O432        O  0.28912260  0.92568276  0.20751709    -0.60900
O433        O  0.34755551  0.95845519  0.20774154    -0.51810
C434        C  0.30734756  0.03387532  0.24681909     0.70210
O435        O  0.32266965  0.00521653  0.25768515    -0.46670
C436        C  0.37701554  0.90336102  0.24530455     0.74920
O437        O  0.24620703  0.92542064  0.23080855    -0.58530
O438        O  0.38127627  0.93657141  0.23522001    -0.48620
O439        O  0.27485273  0.91833329  0.25917160    -0.54960
C440        C  0.32133064  0.93679366  0.19803388     0.85100
O441        O  0.29297319  0.02110312  0.23062797    -0.56850
O442        O  0.34123352  0.89875132  0.25288572    -0.60140
In443      In  0.45734055  0.30172147  0.26296092     1.36870
C444        C  0.40701707  0.36695710  0.25298437     0.77550
O445        O  0.40426247  0.27074493  0.24570398    -0.60900
O446        O  0.44105448  0.23271415  0.26513110    -0.51810
C447        C  0.53836524  0.30603280  0.25099499     0.70210
O448        O  0.52540788  0.32379455  0.26616955    -0.46670
C449        C  0.45702324  0.29602456  0.30198462     0.74920
O450        O  0.43554803  0.35390415  0.24171743    -0.58530
O451        O  0.46356671  0.26472253  0.29130607    -0.48620
O452        O  0.40574152  0.34803484  0.26935271    -0.54960
C453        C  0.40874147  0.23554614  0.25417534     0.85100
O454        O  0.50970017  0.28752088  0.24137174    -0.56850
O455        O  0.45302950  0.33049513  0.29268992    -0.60140
In456      In  0.30653030  0.15925384  0.26411409     1.36870
C457        C  0.24094392  0.20901411  0.25447014     0.77550
O458        O  0.26971199  0.14736061  0.29154220    -0.60900
O459        O  0.33175053  0.17170497  0.29443840    -0.51810
C460        C  0.30683390  0.07838009  0.25262824     0.70210
O461        O  0.29814570  0.10843887  0.24097586    -0.46670
C462        C  0.37528153  0.20349642  0.25428385     0.74920
O463        O  0.24997998  0.17710531  0.24451137    -0.58530
O464        O  0.37704014  0.17140429  0.26528674    -0.48620
O465        O  0.26394492  0.21396994  0.26950330    -0.54960
C466        C  0.29838698  0.16046728  0.30306707     0.85100
O467        O  0.31560726  0.08961181  0.26983996    -0.56850
O468        O  0.33989308  0.20928944  0.24602897    -0.60140
In469      In  0.66579759  0.30641828  0.23470514     1.36870
C470        C  0.71129976  0.37281556  0.24632414     0.77550
O471        O  0.71961137  0.27461402  0.25093718    -0.60900
O472        O  0.67668208  0.23575164  0.23539484    -0.51810
C473        C  0.58330705  0.30625146  0.24526687     0.70210
O474        O  0.61255352  0.32071876  0.25592862    -0.46670
C475        C  0.68056479  0.30897842  0.19623983     0.74920
O476        O  0.70017947  0.34354741  0.25791921    -0.58530
O477        O  0.69142045  0.27869445  0.20722919    -0.48620
O478        O  0.69651839  0.36991681  0.22906104    -0.54960
C479        C  0.71156675  0.23856829  0.24451306     0.85100
O480        O  0.59600400  0.29146957  0.22939242    -0.56850
O481        O  0.66123988  0.33796120  0.20494316    -0.60140
In482      In  0.81102689  0.15820645  0.23542438     1.36870
C483        C  0.87644586  0.20446712  0.24782266     0.77550
O484        O  0.83985882  0.17770313  0.20663919    -0.60900
O485        O  0.77501989  0.15991466  0.20662697    -0.51810
C486        C  0.81604461  0.07574273  0.24639080     0.70210
O487        O  0.81080105  0.10484757  0.25842122    -0.46670
C488        C  0.74413405  0.20576465  0.24428266     0.74920
O489        O  0.87527578  0.18878399  0.23086673    -0.58530
O490        O  0.74010633  0.17186313  0.23509333    -0.48620
O491        O  0.84682615  0.19271046  0.25891017    -0.54960
C492        C  0.80603013  0.17319125  0.19680821     0.85100
O493        O  0.82007798  0.08861640  0.22898531    -0.56850
O494        O  0.78091364  0.21253347  0.25066950    -0.60140
In495      In  0.65841414  0.80467329  0.26185208     1.36870
C496        C  0.70550770  0.73876333  0.25162627     0.77550
O497        O  0.71631663  0.83202556  0.24750465    -0.60900
O498        O  0.67484872  0.87424119  0.26128922    -0.51810
C499        C  0.57681319  0.79989745  0.24981542     0.70210
O500        O  0.59097125  0.78178338  0.26506978    -0.46670
C501        C  0.65921078  0.81136266  0.30093183     0.74920
O502        O  0.68025712  0.75683935  0.23962633    -0.58530
O503        O  0.65698776  0.84281908  0.28950305    -0.48620
O504        O  0.70453598  0.75267643  0.26886442    -0.54960
C505        C  0.71013617  0.86883195  0.25329292     0.85100
O506        O  0.60452320  0.81960247  0.24016813    -0.56850
O507        O  0.65967592  0.77668022  0.29212417    -0.60140
In508      In  0.81140466  0.94817784  0.26280281     1.36870
C509        C  0.87820786  0.90405174  0.25096595     0.77550
O510        O  0.84020355  0.93223419  0.29230225    -0.60900
O511        O  0.77431867  0.94462977  0.29086929    -0.51810
C512        C  0.81601766  0.03062343  0.25203421     0.70210
O513        O  0.80978012  0.00161894  0.23994880    -0.46670
C514        C  0.74420069  0.90030849  0.25362261     0.74920
O515        O  0.87448818  0.91607273  0.26845317    -0.58530
O516        O  0.74034429  0.93619612  0.26096724    -0.48620
O517        O  0.85000697  0.91791233  0.23921060    -0.54960
C518        C  0.80571955  0.93367726  0.30140116     0.85100
O519        O  0.82104121  0.01766421  0.26944745    -0.56850
O520        O  0.78143358  0.89115398  0.24909583    -0.60140
In521      In  0.30990898  0.65071691  0.73488728     1.36870
C522        C  0.37464607  0.70048780  0.74535644     0.77550
O523        O  0.33727338  0.65502685  0.70475604    -0.60900
O524        O  0.27073783  0.64653307  0.70709162    -0.51810
C525        C  0.31475412  0.56934000  0.74648620     0.70210
O526        O  0.29030345  0.59533678  0.75425395    -0.46670
C527        C  0.24492535  0.70009001  0.74401007     0.74920
O528        O  0.35819864  0.67439505  0.75726491    -0.58530
O529        O  0.24073862  0.66823938  0.73339932    -0.48620
O530        O  0.35964554  0.69923507  0.72810563    -0.54960
C531        C  0.30196225  0.65187052  0.69602740     0.85100
O532        O  0.33831559  0.58525629  0.73361553    -0.56850
O533        O  0.28105196  0.70404623  0.75180445    -0.60140
In534      In  0.16398396  0.79995446  0.73658882     1.36870
C535        C  0.20949720  0.86596786  0.74871576     0.77550
O536        O  0.22030953  0.76886502  0.75156388    -0.60900
O537        O  0.17782530  0.73043667  0.73546793    -0.51810
C538        C  0.08135296  0.80263694  0.74673496     0.70210
O539        O  0.11032224  0.79000558  0.75824959    -0.46670
C540        C  0.17937367  0.79674154  0.69836855     0.74920
O541        O  0.19621529  0.86241410  0.73127389    -0.58530
O542        O  0.16877676  0.76457986  0.70821036    -0.48620
O543        O  0.19639188  0.83774205  0.76043984    -0.54960
C544        C  0.21275307  0.73320787  0.74453887     0.85100
O545        O  0.09447327  0.81481072  0.73025097    -0.56850
O546        O  0.17857886  0.83053421  0.70778571    -0.60140
In547      In  0.80682534  0.65611075  0.76329307     1.36870
C548        C  0.74014196  0.70385970  0.75201792     0.77550
O549        O  0.77301884  0.65452847  0.79184483    -0.60900
O550        O  0.83993721  0.66133985  0.79267474    -0.51810
C551        C  0.80806248  0.57475461  0.75233831     0.70210
O552        O  0.82357509  0.60407290  0.74206298    -0.46670
C553        C  0.87347242  0.70481340  0.75497147     0.74920
O554        O  0.75622794  0.67715169  0.74072229    -0.58530
O555        O  0.87640839  0.67242162  0.76579388    -0.48620
O556        O  0.75673081  0.70442999  0.76891055    -0.54960
C557        C  0.80595669  0.66048571  0.80218717     0.85100
O558        O  0.79074458  0.58701346  0.76774726    -0.56850
O559        O  0.83782462  0.70971123  0.74673624    -0.60140
In560      In  0.95387052  0.80502416  0.76285080     1.36870
C561        C  0.90768576  0.87203387  0.75162545     0.77550
O562        O  0.89956046  0.77327370  0.74697689    -0.60900
O563        O  0.94025025  0.73496863  0.76439201    -0.51810
C564        C  0.03616834  0.80302947  0.75211112     0.70210
O565        O  0.00669702  0.81390340  0.74045817    -0.46670
C566        C  0.94877606  0.81330823  0.80163060     0.74920
O567        O  0.92897771  0.85128478  0.73954515    -0.58530
O568        O  0.93330133  0.78237207  0.79264705    -0.48620
O569        O  0.91256453  0.86050798  0.76926440    -0.54960
C570        C  0.90617844  0.73767238  0.75463174     0.85100
O571        O  0.02364860  0.79244869  0.76890776    -0.56850
O572        O  0.96765109  0.83947982  0.79057178    -0.60140
In573      In  0.31636898  0.44190627  0.76247551     1.36870
C574        C  0.38159401  0.39575817  0.75097289     0.77550
O575        O  0.34045973  0.45954275  0.79246543    -0.60900
O576        O  0.29979955  0.40692129  0.79014395    -0.51810
C577        C  0.31518567  0.52413866  0.75175862     0.70210
O578        O  0.34086342  0.49826454  0.74478471    -0.46670
C579        C  0.24678299  0.39889776  0.75286551     0.74920
O580        O  0.37829045  0.40844131  0.76838098    -0.58530
O581        O  0.24601824  0.43010775  0.76400485    -0.48620
O582        O  0.35371040  0.40975735  0.73908478    -0.54960
C583        C  0.32043260  0.43067279  0.80134455     0.85100
O584        O  0.28947003  0.50790714  0.76357129    -0.56850
O585        O  0.28140108  0.39371978  0.74431500    -0.60140
In586      In  0.16583840  0.30026587  0.76225323     1.36870
C587        C  0.21380701  0.23465300  0.75168366     0.77550
O588        O  0.21819629  0.33150284  0.74512339    -0.60900
O589        O  0.18148077  0.36932492  0.76380837    -0.51810
C590        C  0.08311899  0.29947034  0.75129673     0.70210
O591        O  0.09701936  0.28183191  0.76671802    -0.46670
C592        C  0.17388249  0.30076119  0.80130190     0.74920
O593        O  0.18801454  0.25233207  0.73982668    -0.58530
O594        O  0.17580267  0.33398198  0.79100233    -0.48620
O595        O  0.21331628  0.24908061  0.76876937    -0.54960
C596        C  0.21351206  0.36670710  0.75304364     0.85100
O597        O  0.11141862  0.31677357  0.74112219    -0.56850
O598        O  0.16505161  0.26825586  0.79158712    -0.60140
In599      In  0.80918283  0.44872908  0.73559794     1.36870
C600        C  0.74169289  0.40427076  0.74686610     0.77550
O601        O  0.77583080  0.46400337  0.70717047    -0.60900
O602        O  0.83318615  0.42977946  0.70603897    -0.51810
C603        C  0.80978571  0.53004432  0.74683195     0.70210
O604        O  0.79524796  0.50066157  0.75735426    -0.46670
C605        C  0.87535086  0.39942767  0.74526045     0.74920
O606        O  0.76441670  0.42466370  0.75883691    -0.58530
O607        O  0.88027557  0.43544579  0.73765697    -0.48620
O608        O  0.75137630  0.40932257  0.72905986    -0.54960
C609        C  0.80311491  0.44686530  0.69652091     0.85100
O610        O  0.82563495  0.51785167  0.73108274    -0.56850
O611        O  0.83803821  0.39151182  0.75019050    -0.60140
In612      In  0.95473765  0.29992827  0.73498485     1.36870
C613        C  0.91017327  0.23216494  0.74645754     0.77550
O614        O  0.89862347  0.32886351  0.74964733    -0.60900
O615        O  0.94355122  0.37062354  0.73757033    -0.51810
C616        C  0.03773667  0.29991256  0.74573074     0.70210
O617        O  0.00909552  0.28507332  0.75648877    -0.46670
C618        C  0.94643050  0.29871909  0.69598548     0.74920
O619        O  0.93041061  0.25501548  0.75840318    -0.58530
O620        O  0.93448427  0.32911728  0.70615487    -0.48620
O621        O  0.91522171  0.24203126  0.72860722    -0.54960
C622        C  0.90760969  0.36617766  0.74510271     0.85100
O623        O  0.02412637  0.31525698  0.72975509    -0.56850
O624        O  0.96276464  0.26868234  0.70585670    -0.60140
In625      In  0.45879217  0.29647761  0.73635167     1.36870
C626        C  0.41255154  0.36371695  0.74542306     0.77550
O627        O  0.45143858  0.32058755  0.70531398    -0.60900
O628        O  0.45623663  0.25470755  0.70995074    -0.51810
C629        C  0.54047100  0.30405422  0.74778261     0.70210
O630        O  0.51134895  0.29443183  0.75945956    -0.46670
C631        C  0.41130548  0.23110040  0.74753382     0.74920
O632        O  0.43693848  0.34559742  0.75772853    -0.58530
O633        O  0.44668168  0.22660214  0.73954340    -0.48620
O634        O  0.41400559  0.34932560  0.72828953    -0.54960
C635        C  0.45062470  0.28447297  0.69775328     0.85100
O636        O  0.52801288  0.31038082  0.73035100    -0.56850
O637        O  0.40309083  0.26821475  0.75226401    -0.60140
In638      In  0.31079219  0.15597715  0.73540545     1.36870
C639        C  0.24494002  0.20264632  0.74604705     0.77550
O640        O  0.34284475  0.20356515  0.75484420    -0.60900
O641        O  0.38115136  0.16705653  0.73623808    -0.51810
C642        C  0.30827330  0.07408767  0.74663806     0.70210
O643        O  0.27555035  0.09637265  0.74453482    -0.46670
C644        C  0.31701231  0.16864470  0.69659087     0.74920
O645        O  0.27130755  0.18708695  0.75828717    -0.58530
O646        O  0.32820646  0.19499028  0.70914946    -0.48620
O647        O  0.24989553  0.19122483  0.72852663    -0.54960
C648        C  0.37863180  0.19837194  0.74729273     0.85100
O649        O  0.34219917  0.09383612  0.74371235    -0.56850
O650        O  0.30182518  0.13524429  0.70390018    -0.60140
In651      In  0.45168325  0.79914277  0.76298935     1.36870
C652        C  0.40574053  0.73269300  0.75128264     0.77550
O653        O  0.45061212  0.76551165  0.79222701    -0.60900
O654        O  0.43910477  0.83106935  0.79165471    -0.51810
C655        C  0.53393867  0.79839700  0.75151881     0.70210
O656        O  0.50317942  0.79891517  0.73956973    -0.46670
C657        C  0.40336655  0.86671218  0.75477655     0.74920
O658        O  0.41854999  0.73684851  0.76877560    -0.58530
O659        O  0.43901141  0.86943501  0.76324478    -0.48620
O660        O  0.41905529  0.76063531  0.73951469    -0.54960
C661        C  0.44172498  0.79787421  0.80193634     0.85100
O662        O  0.52291631  0.79814132  0.76917148    -0.56850
O663        O  0.39468490  0.83057962  0.74864387    -0.60140
In664      In  0.30569161  0.94780615  0.76470587     1.36870
C665        C  0.24093815  0.89790661  0.75446387     0.77550
O666        O  0.33591442  0.89730356  0.74659419    -0.60900
O667        O  0.37497360  0.93114176  0.76653982    -0.51810
C668        C  0.30711076  0.02894061  0.75216687     0.70210
O669        O  0.27363670  0.00995061  0.75675084    -0.46670
C670        C  0.30514297  0.94769032  0.80392190     0.74920
O671        O  0.25924246  0.92185524  0.74219902    -0.58530
O672        O  0.33113226  0.92695379  0.79418407    -0.48620
O673        O  0.25429692  0.90110555  0.77190979    -0.54960
C674        C  0.37148095  0.90031870  0.75516768     0.85100
O675        O  0.33959010  0.00606312  0.75296017    -0.56850
O676        O  0.27994761  0.96943755  0.79350029    -0.60140
In677      In  0.66719738  0.30570004  0.76568292     1.36870
C678        C  0.71745330  0.24133712  0.75726839     0.77550
O679        O  0.59686139  0.31056430  0.77154040    -0.60900
O680        O  0.61539657  0.30360899  0.74211782    -0.51810
C681        C  0.67635093  0.29930261  0.80451745     0.70210
O682        O  0.67152864  0.26770631  0.79374756    -0.46670
C683        C  0.71017704  0.37307553  0.75327577     0.74920
O684        O  0.67998006  0.23586596  0.76284991    -0.58530
O685        O  0.69302630  0.34749924  0.74156329    -0.48620
O686        O  0.72743713  0.27903129  0.75418377    -0.54960
C687        C  0.58528699  0.30652051  0.75392152     0.85100
O688        O  0.67531075  0.33431867  0.79548945    -0.56850
O689        O  0.70180334  0.36659805  0.77115065    -0.60140
In690      In  0.81272392  0.15559366  0.76573700     1.36870
C691        C  0.87939776  0.20001880  0.75292515     0.77550
O692        O  0.78681710  0.21532870  0.75248622    -0.60900
O693        O  0.74295440  0.17188620  0.76449794    -0.51810
C694        C  0.81221488  0.07471676  0.75392994     0.70210
O695        O  0.79505785  0.10422927  0.74424117    -0.46670
C696        C  0.80593667  0.16577373  0.80443396     0.74920
O697        O  0.87381574  0.19107952  0.77082396    -0.58530
O698        O  0.77461085  0.15647179  0.79366166    -0.48620
O699        O  0.85333590  0.18268098  0.74129996    -0.54960
C700        C  0.74921662  0.20801658  0.75725961     0.85100
O701        O  0.83100780  0.08648235  0.76935226    -0.56850
O702        O  0.84094248  0.16584670  0.79574983    -0.60140
In703      In  0.66095886  0.80135461  0.73395766     1.36870
C704        C  0.70766407  0.73491816  0.74590439     0.77550
O705        O  0.66689837  0.77135883  0.70446730    -0.60900
O706        O  0.66843608  0.83780838  0.70550964    -0.51810
C707        C  0.57879413  0.79856423  0.74545822     0.70210
O708        O  0.60937239  0.80354475  0.75724400    -0.46670
C709        C  0.71010444  0.86745228  0.74319285     0.74920
O710        O  0.69432924  0.73927105  0.72844007    -0.58530
O711        O  0.67402201  0.87204048  0.73526725    -0.48620
O712        O  0.69381093  0.76207629  0.75752837    -0.54960
C713        C  0.67139703  0.80551840  0.69504600     0.85100
O714        O  0.58999177  0.79417886  0.72797444    -0.56850
O715        O  0.71898034  0.83008289  0.74780842    -0.60140
In716      In  0.80872180  0.94976042  0.73516695     1.36870
C717        C  0.87605786  0.90385549  0.74580336     0.77550
O718        O  0.77972862  0.89268585  0.74947796    -0.60900
O719        O  0.73755311  0.93706997  0.73669365    -0.51810
C720        C  0.81023596  0.03039773  0.74768417     0.70210
O721        O  0.82592465  0.00031858  0.75751712    -0.46670
C722        C  0.80839866  0.94310172  0.69626563     0.74920
O723        O  0.85053302  0.91871215  0.75800874    -0.58530
O724        O  0.78035460  0.92736686  0.70703538    -0.48620
O725        O  0.86945852  0.91545674  0.72819959    -0.54960
C726        C  0.74241419  0.90075742  0.74407776     0.85100
O727        O  0.79262591  0.01927473  0.73191818    -0.56850
O728        O  0.83679793  0.96341413  0.70541067    -0.60140
In729      In  0.44280674  0.31119126  0.57801878     1.36870
C730        C  0.42922733  0.28375226  0.54146300     0.77550
O731        O  0.38411051  0.35228114  0.57502508    -0.60900
O732        O  0.44291196  0.37742051  0.58521519    -0.51810
C733        C  0.42870282  0.27893867  0.61366094     0.70210
O734        O  0.39888619  0.29109060  0.60247790    -0.46670
C735        C  0.52387070  0.33448263  0.57588790     0.74920
O736        O  0.43881578  0.25870191  0.55543139    -0.58530
O737        O  0.49403157  0.35843344  0.58033249    -0.48620
O738        O  0.42308148  0.32081692  0.54667183    -0.54960
C739        C  0.40500786  0.38447709  0.58010951     0.85100
O740        O  0.46366200  0.27575988  0.60524768    -0.56850
O741        O  0.51236138  0.29712314  0.57275503    -0.60140
In742      In  0.45551418  0.32434054  0.42298964     1.36870
C743        C  0.44118066  0.28817937  0.45800252     0.77550
O744        O  0.52294119  0.30556600  0.41699303    -0.60900
O745        O  0.50693714  0.37020976  0.41897874    -0.51810
C746        C  0.43969318  0.30006891  0.38634411     0.70210
O747        O  0.46140897  0.27765931  0.39822623    -0.46670
C748        C  0.41681718  0.39748920  0.42571557     0.74920
O749        O  0.41514075  0.28518777  0.44385549    -0.58530
O750        O  0.45522640  0.39168500  0.43033850    -0.48620
O751        O  0.47548616  0.30543656  0.45347861    -0.54960
C752        C  0.53515029  0.34341099  0.41584119     0.85100
O753        O  0.42214217  0.33064192  0.39423595    -0.56850
O754        O  0.39711204  0.36436669  0.42118899    -0.60140
In755      In  0.35245521  0.64254618  0.57844947     1.36870
C756        C  0.32429797  0.64878739  0.54156397     0.77550
O757        O  0.38746613  0.70528532  0.57964635    -0.60900
O758        O  0.42088915  0.64891496  0.57448882    -0.51810
C759        C  0.31821711  0.65445289  0.61316016     0.70210
O760        O  0.29528096  0.64961278  0.59796584    -0.46670
C761        C  0.36311467  0.56030858  0.58176048     0.74920
O762        O  0.30798157  0.67064739  0.55493339    -0.58530
O763        O  0.39046464  0.58687115  0.58685817    -0.48620
O764        O  0.35497545  0.62654922  0.54732582    -0.54960
C765        C  0.42308208  0.68758506  0.57781344     0.85100
O766        O  0.35727234  0.65626577  0.61016639    -0.56850
O767        O  0.32779931  0.57586966  0.57677384    -0.60140
In768      In  0.33110754  0.64692362  0.42023593     1.36870
C769        C  0.31132854  0.64741084  0.45793144     0.77550
O770        O  0.31947401  0.57795339  0.42400333    -0.60900
O771        O  0.37780179  0.59863362  0.41199822    -0.51810
C772        C  0.29084352  0.65609827  0.38626073     0.70210
O773        O  0.28297909  0.62579863  0.39772254    -0.46670
C774        C  0.39868682  0.69537477  0.42019398     0.74920
O775        O  0.28571007  0.66251814  0.44513328    -0.58530
O776        O  0.39791908  0.65840007  0.41374313    -0.48620
O777        O  0.34579073  0.63526820  0.45122846    -0.54960
C778        C  0.35594878  0.56819564  0.41823795     0.85100
O779        O  0.31174076  0.68557503  0.39385648    -0.56850
O780        O  0.36318227  0.70964450  0.42535983    -0.60140
In781      In  0.64959650  0.77887520  0.42198209     1.36870
C782        C  0.67230071  0.80681968  0.45733900     0.77550
O783        O  0.58142881  0.79704779  0.42832468    -0.60900
O784        O  0.59516995  0.73745056  0.41625974    -0.51810
C785        C  0.66326959  0.80854476  0.38606168     0.70210
O786        O  0.69197632  0.79196964  0.39652629    -0.46670
C787        C  0.68780037  0.70452688  0.42030564     0.74920
O788        O  0.67444445  0.83056119  0.44229555    -0.58530
O789        O  0.64831975  0.70986017  0.41988481    -0.48620
O790        O  0.65733636  0.77103379  0.45414192    -0.54960
C791        C  0.56760470  0.76152183  0.42300960     0.85100
O792        O  0.62994975  0.81713000  0.39511555    -0.56850
O793        O  0.70866325  0.73829337  0.42168821    -0.60140
In794      In  0.67089824  0.77876957  0.57622006     1.36870
C795        C  0.68865328  0.80768703  0.54003186     0.77550
O796        O  0.72452399  0.73232553  0.58042428    -0.60900
O797        O  0.66278566  0.71007454  0.57340604    -0.51810
C798        C  0.69044110  0.81211242  0.61063608     0.70210
O799        O  0.65930769  0.82449180  0.60037939    -0.46670
C800        C  0.58847657  0.76448561  0.58036575     0.74920
O801        O  0.68020088  0.83243168  0.55380710    -0.58530
O802        O  0.61702138  0.74865401  0.59121937    -0.48620
O803        O  0.69133230  0.76990737  0.54538991    -0.54960
C804        C  0.70069211  0.70087598  0.57753442     0.85100
O805        O  0.71611438  0.78957238  0.60147223    -0.56850
O806        O  0.60195638  0.78987985  0.56746385    -0.60140
In807      In  0.76608732  0.44598176  0.57398593     1.36870
C808        C  0.80172686  0.42396050  0.54032321     0.77550
O809        O  0.72342924  0.39023080  0.57928779    -0.60900
O810        O  0.69892941  0.44408227  0.56436092    -0.51810
C811        C  0.78729612  0.43894713  0.61183269     0.70210
O812        O  0.81337773  0.42891749  0.59868871    -0.46670
C813        C  0.75533324  0.52815259  0.57407332     0.74920
O814        O  0.78891783  0.39718783  0.55273959    -0.58530
O815        O  0.72732250  0.50247397  0.56844932    -0.48620
O816        O  0.80279893  0.46094705  0.54659152    -0.54960
C817        C  0.69138072  0.40836096  0.57174465     0.85100
O818        O  0.75154546  0.44981177  0.60535863    -0.56850
O819        O  0.79079697  0.51179896  0.57839715    -0.60140
In820      In  0.77282274  0.45303835  0.42036892     1.36870
C821        C  0.79841727  0.43147634  0.45685857     0.77550
O822        O  0.78241445  0.52134394  0.42834862    -0.60900
O823        O  0.72924120  0.50384170  0.41096044    -0.51810
C824        C  0.81071787  0.44686658  0.38594688     0.70210
O825        O  0.81545152  0.47818679  0.39681085    -0.46670
C826        C  0.70324746  0.40843634  0.41488727     0.74920
O827        O  0.82454789  0.43533548  0.44302160    -0.58530
O828        O  0.70360070  0.44776021  0.41689777    -0.48620
O829        O  0.76071939  0.43851741  0.45177345    -0.54960
C830        C  0.74884011  0.53291895  0.41947087     0.85100
O831        O  0.79325759  0.41604574  0.39440733    -0.56850
O832        O  0.73930100  0.39125022  0.41581172    -0.60140
C833        C  0.77959865  0.39465579  0.48747036    -0.05810
C834        C  0.80895468  0.42022493  0.47763547     0.00110
C835        C  0.84151398  0.44012362  0.48860252    -0.08460
C836        C  0.84097401  0.43688180  0.50936510    -0.05830
C837        C  0.80886014  0.41474452  0.51926429     0.00100
C838        C  0.77830835  0.39206891  0.50810753    -0.08370
C839        C  0.74167035  0.36884645  0.51772317     0.62010
H840        H  0.75530268  0.37926884  0.47875432     0.12710
H841        H  0.86394316  0.45407650  0.51808639     0.12720
C842        C  0.87470561  0.46697773  0.47853138     0.62250
F843        F  0.71508921  0.35017075  0.50401579    -0.22920
F844        F  0.71765529  0.39673544  0.52826392    -0.20250
F845        F  0.75707771  0.33752501  0.53018539    -0.19930
F846        F  0.85539372  0.49986624  0.46833140    -0.19980
F847        F  0.89700926  0.44267035  0.46554995    -0.20300
F848        F  0.90330730  0.48380435  0.49189123    -0.22980
C849        C  0.75838917  0.64827827  0.57455353    -0.05810
C850        C  0.71566735  0.65673496  0.57855335     0.00110
C851        C  0.68799892  0.62283597  0.58312626    -0.08460
C852        C  0.70312072  0.58174400  0.58165038    -0.05830
C853        C  0.74494859  0.57308358  0.57648796     0.00100
C854        C  0.77380772  0.60671896  0.57366993    -0.08370
C855        C  0.82010006  0.59894735  0.56933497     0.62010
H856        H  0.77942821  0.67450597  0.57167860     0.12710
H857        H  0.68185817  0.55563281  0.58443152     0.12720
C858        C  0.64271499  0.62927392  0.58975082     0.62250
F859        F  0.84190509  0.63608464  0.56591126    -0.22920
F860        F  0.82347949  0.57437339  0.55280971    -0.20250
F861        F  0.83919423  0.57862355  0.58525387    -0.19930
F862        F  0.61789337  0.64262664  0.57395019    -0.19980
F863        F  0.64182488  0.65867835  0.60454155    -0.20300
F864        F  0.62507486  0.59251216  0.59716199    -0.22980
C865        C  0.67690881  0.62823650  0.41861415    -0.05810
C866        C  0.70615832  0.66152625  0.41940798     0.00110
C867        C  0.75015236  0.65224756  0.41938040    -0.08460
C868        C  0.76280364  0.60969106  0.41955821    -0.05830
C869        C  0.73317282  0.57670752  0.41910412     0.00100
C870        C  0.68928606  0.58608866  0.41839023    -0.08370
C871        C  0.65508193  0.55219836  0.41786870     0.62010
H872        H  0.64354417  0.63537458  0.41812086     0.12710
H873        H  0.79613587  0.60175196  0.41981633     0.12720
C874        C  0.78368153  0.68649306  0.41887600     0.62250
F875        F  0.61480157  0.56873286  0.41967329    -0.22920
F876        F  0.66133359  0.52383632  0.43326635    -0.20250
F877        F  0.65617122  0.53144692  0.40014139    -0.19930
F878        F  0.78172436  0.71011566  0.43574067    -0.19980
F879        F  0.77724726  0.71219454  0.40250493    -0.20300
F880        F  0.82414939  0.67007699  0.41782591    -0.22980
C881        C  0.72090016  0.79600729  0.50782597    -0.05810
C882        C  0.69238017  0.81950595  0.51889514     0.00110
C883        C  0.66229824  0.84558801  0.50892678    -0.08460
C884        C  0.66011996  0.84496285  0.48815397    -0.05830
C885        C  0.68592421  0.81813884  0.47740565     0.00100
C886        C  0.71802818  0.79463554  0.48721496    -0.08370
C887        C  0.74773920  0.76652002  0.47592316     0.62010
H888        H  0.74334761  0.77581180  0.51556807     0.12710
H889        H  0.63548066  0.86220860  0.48028727     0.12720
C890        C  0.62983100  0.87046221  0.52012410     0.62250
F891        F  0.77941042  0.74976401  0.48789986    -0.22920
F892        F  0.76659075  0.78964130  0.46101872    -0.20250
F893        F  0.72556711  0.73333464  0.46784905    -0.19930
F894        F  0.65020350  0.89864727  0.53233063    -0.19980
F895        F  0.60536137  0.84333266  0.53128794    -0.20300
F896        F  0.60299097  0.89297505  0.50761832    -0.22980
C897        C  0.49002669  0.77415041  0.41886645    -0.05810
C898        C  0.52330156  0.74740583  0.42493132     0.00110
C899        C  0.51410848  0.70600934  0.43167322    -0.08460
C900        C  0.47241580  0.69167121  0.43050181    -0.05830
C901        C  0.43957437  0.71700623  0.42307890     0.00100
C902        C  0.44778139  0.75941980  0.41778071    -0.08370
C903        C  0.41264518  0.78804061  0.41025571     0.62010
H904        H  0.49763329  0.80590113  0.41412786     0.12710
H905        H  0.46531232  0.65953093  0.43484689     0.12720
C906        C  0.54802688  0.67593629  0.43942841     0.62250
F907        F  0.42779119  0.82739717  0.40490991    -0.22920
F908        F  0.38304977  0.79315888  0.42482441    -0.20250
F909        F  0.39320496  0.77056297  0.39393489    -0.19930
F910        F  0.57546019  0.69634880  0.45216403    -0.19980
F911        F  0.57021369  0.66024348  0.42380207    -0.20300
F912        F  0.53071730  0.64217641  0.44963242    -0.22980
C913        C  0.46819211  0.75217719  0.57545563    -0.05810
C914        C  0.46455112  0.70909443  0.58018401     0.00110
C915        C  0.50082203  0.68701617  0.58742936    -0.08460
C916        C  0.53958658  0.70788027  0.58816972    -0.05830
C917        C  0.54425488  0.74942925  0.58163960     0.00100
C918        C  0.50786082  0.77290431  0.57601982    -0.08370
C919        C  0.51069045  0.81948245  0.57123757     0.62010
H920        H  0.44008228  0.76910202  0.57065488     0.12710
H921        H  0.56745216  0.69068044  0.59292997     0.12720
C922        C  0.50016318  0.64083322  0.59340871     0.62250
F923        F  0.47098511  0.83764084  0.56947869    -0.22920
F924        F  0.53140547  0.82562199  0.55365971    -0.20250
F925        F  0.53265479  0.83970449  0.58612003    -0.19930
F926        F  0.49623772  0.61725602  0.57658650    -0.19980
F927        F  0.46701494  0.63262355  0.60600851    -0.20300
F928        F  0.53704860  0.62837984  0.60308817    -0.22980
C929        C  0.28817745  0.67860337  0.48923674    -0.05810
C930        C  0.30371308  0.64376196  0.47924920     0.00110
C931        C  0.31827428  0.60807298  0.49014551    -0.08460
C932        C  0.32067923  0.61036628  0.51064881    -0.05830
C933        C  0.31012419  0.64708684  0.52064682     0.00100
C934        C  0.29151059  0.68101999  0.50995413    -0.08370
C935        C  0.27836651  0.72062717  0.52009530     0.62010
H936        H  0.27674704  0.70524940  0.48060165     0.12710
H937        H  0.33360187  0.58393717  0.51898225     0.12720
C938        C  0.33371796  0.56824003  0.48037679     0.62250
F939        F  0.26160527  0.74974062  0.50686245    -0.22920
F940        F  0.31340726  0.73820296  0.52924483    -0.20250
F941        F  0.24781680  0.71138654  0.53389644    -0.19930
F942        F  0.37400981  0.57448936  0.47316496    -0.19980
F943        F  0.30652637  0.55731827  0.46516402    -0.20300
F944        F  0.33547461  0.53458982  0.49353824    -0.22980
C945        C  0.63049712  0.40858594  0.40214561    -0.05810
C946        C  0.66291939  0.38586974  0.41175999     0.00110
C947        C  0.65430264  0.34539806  0.41976169    -0.08460
C948        C  0.61208278  0.33108313  0.41963473    -0.05830
C949        C  0.57910112  0.35607190  0.41187243     0.00100
C950        C  0.58860123  0.39431190  0.40188061    -0.08370
C951        C  0.55493666  0.42073615  0.39129492     0.62010
H952        H  0.63790186  0.43891084  0.39555511     0.12710
H953        H  0.60417234  0.30138323  0.42667840     0.12720
C954        C  0.68877876  0.31844674  0.42923944     0.62250
F955        F  0.57280135  0.45020829  0.37868834    -0.22920
F956        F  0.53117322  0.44209359  0.40484098    -0.20250
F957        F  0.52868582  0.39527790  0.38014137    -0.19930
F958        F  0.70723835  0.33949191  0.44483713    -0.19980
F959        F  0.71922074  0.30960646  0.41547234    -0.20300
F960        F  0.67308200  0.28057930  0.43635237    -0.22980
C961        C  0.42751625  0.47390228  0.42637025    -0.05810
C962        C  0.39866009  0.44045685  0.42440720     0.00110
C963        C  0.35539402  0.44939634  0.42012374    -0.08460
C964        C  0.34296889  0.49171991  0.41806058    -0.05830
C965        C  0.37218976  0.52482097  0.41962428     0.00100
C966        C  0.41532384  0.51594753  0.42393710    -0.08370
C967        C  0.44855761  0.55032217  0.42641903     0.62010
H968        H  0.46046281  0.46690583  0.42948728     0.12710
H969        H  0.31015153  0.49940390  0.41491326     0.12720
C970        C  0.32230013  0.41507298  0.41763514     0.62250
F971        F  0.48747231  0.53432601  0.43243267    -0.22920
F972        F  0.43579967  0.57840781  0.44049484    -0.20250
F973        F  0.45431652  0.57130948  0.40868006    -0.19930
F974        F  0.32170702  0.38951663  0.43428212    -0.19980
F975        F  0.33146379  0.39135123  0.40135632    -0.20300
F976        F  0.28200398  0.43140010  0.41484578    -0.22980
C977        C  0.57176766  0.39482307  0.57228584    -0.05810
C978        C  0.56772419  0.35095313  0.57420455     0.00110
C979        C  0.60474161  0.32580194  0.57522006    -0.08460
C980        C  0.64452078  0.34581684  0.57395193    -0.05830
C981        C  0.64832778  0.38975046  0.57201898     0.00100
C982        C  0.61120503  0.41490872  0.57151275    -0.08370
C983        C  0.61251318  0.46282349  0.57092651     0.62010
H984        H  0.54332222  0.41374691  0.57148149     0.12710
H985        H  0.67317412  0.32717335  0.57455300     0.12720
C986        C  0.60264299  0.27845494  0.57817753     0.62250
F987        F  0.57273756  0.48035450  0.57294177    -0.22920
F988        F  0.62833266  0.47683733  0.55311992    -0.20250
F989        F  0.63767915  0.47736840  0.58621748    -0.19930
F990        F  0.58304116  0.26035718  0.56207136    -0.19980
F991        F  0.58015288  0.26887177  0.59499305    -0.20300
F992        F  0.64251971  0.26080991  0.58032732    -0.22980
C993        C  0.42126907  0.45802105  0.57481767    -0.05810
C994        C  0.38984338  0.42828211  0.57897124     0.00110
C995        C  0.34804503  0.44179029  0.58263847    -0.08460
C996        C  0.34018765  0.48544049  0.58340202    -0.05830
C997        C  0.37280236  0.51503800  0.58060097     0.00100
C998        C  0.41381582  0.50101416  0.57558986    -0.08370
C999        C  0.45048143  0.53067059  0.57154083     0.62010
H1000       H  0.45274636  0.44713957  0.57136102     0.12710
H1001       H  0.30873769  0.49678175  0.58657218     0.12720
C1002       C  0.31243985  0.41071998  0.58607433     0.62250
F1003       F  0.48527827  0.51016125  0.56408659    -0.22920
F1004       F  0.46289569  0.54879040  0.58904368    -0.20250
F1005       F  0.43849227  0.56121648  0.55785838    -0.19930
F1006       F  0.32251468  0.38481219  0.60192400    -0.19980
F1007       F  0.30634685  0.38665700  0.56949245    -0.20300
F1008       F  0.27466250  0.43071020  0.59003339    -0.22980
C1009       C  0.39361555  0.28702940  0.50896102    -0.05810
C1010       C  0.42844442  0.27307474  0.52033513     0.00110
C1011       C  0.46558410  0.25982693  0.51076480    -0.08460
C1012       C  0.46601093  0.25981701  0.49005410    -0.05830
C1013       C  0.43228929  0.27636351  0.47871714     0.00100
C1014       C  0.39542766  0.29050029  0.48828137    -0.08370
C1015       C  0.36063888  0.31406547  0.47705640     0.62010
H1016       H  0.36639506  0.29899203  0.51659113     0.12710
H1017       H  0.49450626  0.25075007  0.48252309     0.12720
C1018       C  0.50640085  0.25136832  0.52223171     0.62250
F1019       F  0.32831292  0.32630872  0.48925505    -0.22920
F1020       F  0.34333643  0.28896645  0.46262544    -0.20250
F1021       F  0.37730531  0.34989504  0.46833837    -0.19930
F1022       F  0.50046370  0.21910018  0.53576027    -0.19980
F1023       F  0.51854810  0.28742535  0.53195959    -0.20300
F1024       F  0.53920644  0.24014020  0.51008258    -0.22980
C1025       C  0.66656314  0.84427100  0.66310417    -0.05810
C1026       C  0.67976341  0.80798460  0.67355738     0.00110
C1027       C  0.70211075  0.77632774  0.66348381    -0.08460
C1028       C  0.70811954  0.78123815  0.64310010    -0.05830
C1029       C  0.69215155  0.81603614  0.63239636     0.00100
C1030       C  0.67209051  0.84879368  0.64263219    -0.08370
C1031       C  0.65616770  0.88819307  0.63209555     0.62010
H1032       H  0.65043605  0.86866475  0.67102262     0.12710
H1033       H  0.72334011  0.75635311  0.63512987     0.12720
C1034       C  0.72021919  0.73770337  0.67403261     0.62250
F1035       F  0.64670252  0.91958435  0.64521819    -0.22920
F1036       F  0.61977081  0.87918550  0.62141723    -0.20250
F1037       F  0.68689434  0.90349586  0.61954902    -0.19930
F1038       F  0.68766130  0.71224948  0.68061843    -0.19980
F1039       F  0.74528029  0.74985088  0.68982533    -0.20300
F1040       F  0.74511768  0.71398098  0.66180333    -0.22980
C1041       C  0.41599438  0.30836938  0.66691682    -0.05810
C1042       C  0.44162582  0.27822399  0.67645634     0.00110
C1043       C  0.45746538  0.24410046  0.66550918    -0.08460
C1044       C  0.44970963  0.24353969  0.64500694    -0.05830
C1045       C  0.42562741  0.27488116  0.63536573     0.00100
C1046       C  0.40717509  0.30713180  0.64663048    -0.08370
C1047       C  0.38021171  0.34166424  0.63726190     0.62010
H1048       H  0.40310961  0.33349914  0.67557478     0.12710
H1049       H  0.46364572  0.21929613  0.63615549     0.12720
C1050       C  0.48376269  0.20936173  0.67512186     0.62250
F1051       F  0.36519329  0.36946705  0.65100448    -0.22920
F1052       F  0.34562206  0.32396038  0.62784435    -0.20250
F1053       F  0.40392029  0.36443536  0.62388852    -0.19930
F1054       F  0.45926655  0.18702418  0.68837651    -0.19980
F1055       F  0.51836683  0.22648438  0.68482461    -0.20300
F1056       F  0.49864851  0.18130197  0.66146900    -0.22980
C1057       C  0.81925988  0.41251707  0.66491292    -0.05810
C1058       C  0.80027159  0.44623116  0.67470999     0.00110
C1059       C  0.77979471  0.47844292  0.66350834    -0.08460
C1060       C  0.77869801  0.47529508  0.64294759    -0.05830
C1061       C  0.79640305  0.44106019  0.63320173     0.00100
C1062       C  0.81705888  0.40900370  0.64424615    -0.08370
C1063       C  0.83478470  0.37057237  0.63437150     0.62010
H1064       H  0.83483633  0.38817859  0.67364720     0.12710
H1065       H  0.76283196  0.49942476  0.63418208     0.12720
C1066       C  0.75912857  0.51615598  0.67296290     0.62250
F1067       F  0.85002181  0.34134842  0.64798777    -0.22920
F1068       F  0.86758908  0.38245157  0.62222310    -0.20250
F1069       F  0.80339267  0.35136599  0.62329157    -0.19930
F1070       F  0.78784142  0.53583454  0.68534510    -0.19980
F1071       F  0.72425035  0.50314014  0.68354057    -0.20300
F1072       F  0.74535742  0.54561851  0.65910048    -0.22980
C1073       C  0.29266147  0.61693688  0.66425899    -0.05810
C1074       C  0.29780635  0.65439961  0.67453169     0.00110
C1075       C  0.30231518  0.69301766  0.66420306    -0.08460
C1076       C  0.30435760  0.69256879  0.64355801    -0.05830
C1077       C  0.30243258  0.65467960  0.63333471     0.00100
C1078       C  0.29576843  0.61629609  0.64366894    -0.08370
C1079       C  0.29547592  0.57460950  0.63308438     0.62010
H1080       H  0.28915030  0.58786360  0.67259640     0.12710
H1081       H  0.31020371  0.72141618  0.63534782     0.12720
C1082       C  0.30598527  0.73414210  0.67510561     0.62250
F1083       F  0.28676634  0.54120859  0.64569882    -0.22920
F1084       F  0.33469222  0.56777551  0.62493380    -0.20250
F1085       F  0.26492724  0.57531184  0.61830642    -0.19930
F1086       F  0.34244627  0.73419485  0.68659912    -0.19980
F1087       F  0.27129882  0.73878194  0.68707394    -0.20300
F1088       F  0.30763102  0.76833873  0.66230573    -0.22980
C1089       C  0.66567510  0.77524060  0.33307735    -0.05810
C1090       C  0.66163202  0.81369569  0.32282050     0.00110
C1091       C  0.66025617  0.85169718  0.33369479    -0.08460
C1092       C  0.66179292  0.84918938  0.35447990    -0.05830
C1093       C  0.66563345  0.81051045  0.36443960     0.00100
C1094       C  0.66752364  0.77284068  0.35364014    -0.08370
C1095       C  0.66972870  0.72983955  0.36376424     0.62010
H1096       H  0.66705170  0.74647136  0.32481721     0.12710
H1097       H  0.65987746  0.87736095  0.36317553     0.12720
C1098       C  0.65700408  0.89462973  0.32370667     0.62250
F1099       F  0.66820908  0.69732383  0.35044852    -0.22920
F1100       F  0.63586414  0.72488201  0.37626832    -0.20250
F1101       F  0.70718554  0.72615938  0.37439238    -0.19930
F1102       F  0.62002227  0.89707331  0.31259996    -0.19980
F1103       F  0.69153166  0.90114039  0.31172754    -0.20300
F1104       F  0.65638038  0.92680477  0.33719482    -0.22980
C1105       C  0.41826376  0.31597512  0.33139884    -0.05810
C1106       C  0.45143746  0.29281588  0.32350834     0.00110
C1107       C  0.47795710  0.26845906  0.33615150    -0.08460
C1108       C  0.47118421  0.26964210  0.35658499    -0.05830
C1109       C  0.43904137  0.29438423  0.36465422     0.00100
C1110       C  0.41125348  0.31726790  0.35173579    -0.08370
C1111       C  0.37505139  0.34423143  0.35899417     0.62010
H1112       H  0.39814187  0.33396959  0.32136006     0.12710
H1113       H  0.49218328  0.25237914  0.36648884     0.12720
C1114       C  0.51444958  0.24306564  0.32823418     0.62250
F1115       F  0.34816793  0.35691596  0.34376376    -0.22920
F1116       F  0.39105885  0.38006324  0.36768744    -0.20250
F1117       F  0.35108732  0.32175453  0.37240178    -0.19930
F1118       F  0.54028590  0.26879025  0.31699392    -0.19980
F1119       F  0.49887622  0.21085389  0.31675992    -0.20780
F1120       F  0.53900176  0.22532735  0.34321049    -0.22980
C1121       C  0.32542130  0.63779621  0.35608822    -0.05810
C1122       C  0.28823318  0.65172607  0.36482484     0.00110
C1123       C  0.25199443  0.66019342  0.35314739    -0.08460
C1124       C  0.25588627  0.65923055  0.33248806    -0.05830
C1125       C  0.29417445  0.64749710  0.32360527     0.00100
C1126       C  0.32869900  0.63398215  0.33568206    -0.08370
C1127       C  0.36839177  0.61430181  0.32738729     0.62010
H1128       H  0.35227693  0.62983524  0.36554054     0.12710
H1129       H  0.22902694  0.66758022  0.32315786     0.12720
C1130       C  0.20961261  0.66831947  0.36250560     0.62250
F1131       F  0.39313971  0.59544165  0.34200286    -0.22920
F1132       F  0.39267872  0.64475316  0.31817569    -0.20250
F1133       F  0.35731262  0.58350886  0.31407640    -0.19930
F1134       F  0.21269311  0.70137036  0.37535528    -0.19980
F1135       F  0.19719464  0.63274321  0.37287087    -0.20300
F1136       F  0.17859422  0.67788629  0.34855900    -0.22980
C1137       C  0.83411856  0.48279575  0.33320510    -0.05810
C1138       C  0.81695216  0.44901053  0.32281546     0.00110
C1139       C  0.80343458  0.41256393  0.33307820    -0.08460
C1140       C  0.80480074  0.41239877  0.35372605    -0.05830
C1141       C  0.81912006  0.44738093  0.36442358     0.00100
C1142       C  0.83497990  0.48310901  0.35393967    -0.08370
C1143       C  0.85125867  0.52216230  0.36422352     0.62010
H1144       H  0.84493378  0.50994041  0.32485786     0.12710
H1145       H  0.79294516  0.38516894  0.36166021     0.12720
C1146       C  0.78796103  0.37384029  0.32227102     0.62250
F1147       F  0.86915823  0.55065563  0.35115165    -0.22920
F1148       F  0.88204103  0.51110212  0.37802086    -0.20250
F1149       F  0.81818019  0.54223546  0.37332912    -0.19930
F1150       F  0.81757041  0.36212158  0.30858020    -0.19980
F1151       F  0.74989050  0.38243056  0.31277422    -0.20300
F1152       F  0.78173135  0.34001880  0.33497686    -0.22980
C1153       C  0.93024271  0.25834921  0.66623661    -0.05810
C1154       C  0.94062681  0.29733567  0.67434769     0.00110
C1155       C  0.94593479  0.33296706  0.66173502    -0.08460
C1156       C  0.94258734  0.32754009  0.64121074    -0.05830
C1157       C  0.93335619  0.28821364  0.63320561     0.00100
C1158       C  0.92606598  0.25316451  0.64583709    -0.08370
C1159       C  0.91340678  0.21048102  0.63782837     0.62010
H1160       H  0.92561736  0.23169131  0.67609003     0.12710
H1161       H  0.94825082  0.35370836  0.63120571     0.12720
C1162       C  0.95654454  0.37609044  0.66974690     0.62250
F1163       F  0.90212452  0.18258413  0.65270302    -0.22920
F1164       F  0.94674084  0.19305540  0.62783712    -0.20250
F1165       F  0.87899790  0.21503691  0.62516493    -0.19930
F1166       F  0.99241539  0.37364946  0.68163357    -0.19980
F1167       F  0.92301102  0.39074129  0.68055080    -0.20300
F1168       F  0.96425215  0.40512591  0.65483244    -0.22980
C1169       C  0.95755992  0.25944099  0.35639115    -0.05810
C1170       C  0.93801942  0.29229621  0.36649199     0.00110
C1171       C  0.92675787  0.32945030  0.35594268    -0.08460
C1172       C  0.93270951  0.33089814  0.33536704    -0.05830
C1173       C  0.95073447  0.29714651  0.32521347     0.00100
C1174       C  0.96485017  0.26125612  0.33609578    -0.08370
C1175       C  0.98803816  0.22489132  0.32669968     0.62010
H1176       H  0.96745479  0.23170358  0.36464126     0.12710
H1177       H  0.92277863  0.35845876  0.32698367     0.12720
C1178       C  0.90825678  0.36710372  0.36613937     0.62250
F1179       F  0.00406238  0.19665427  0.34060590    -0.22920
F1180       F  0.02187765  0.24006055  0.31597604    -0.20250
F1181       F  0.96060581  0.20302987  0.31452895    -0.19930
F1182       F  0.93715118  0.38237289  0.37974423    -0.19980
F1183       F  0.87143779  0.35546867  0.37557891    -0.20300
F1184       F  0.89884680  0.39942506  0.35295002    -0.22980
C1185       C  0.86828546  0.29301105  0.51051639    -0.05810
C1186       C  0.90035864  0.31532386  0.52046164     0.00110
C1187       C  0.92693567  0.34260797  0.50937791    -0.08460
C1188       C  0.92350429  0.34251428  0.48866183    -0.05830
C1189       C  0.89599248  0.31502031  0.47872098     0.00100
C1190       C  0.86619218  0.29139551  0.48980798    -0.08370
C1191       C  0.83522981  0.26115357  0.48014744     0.62010
H1192       H  0.84739560  0.27325090  0.51914589     0.12710
H1193       H  0.94547238  0.36094040  0.47997760     0.12720
C1194       C  0.96140315  0.36890787  0.51900228     0.62250
F1195       F  0.80848827  0.24238362  0.49366977    -0.22920
F1196       F  0.85725615  0.22950162  0.47102740    -0.20250
F1197       F  0.81037990  0.28258667  0.46642101    -0.19930
F1198       F  0.99179565  0.34289355  0.52754681    -0.19980
F1199       F  0.94391263  0.39405595  0.53317692    -0.20300
F1200       F  0.98146590  0.39497135  0.50553976    -0.22980
C1201       C  0.31862189  0.21969592  0.64545264    -0.05810
C1202       C  0.32158268  0.18404943  0.63367966     0.00110
C1203       C  0.32699623  0.14387313  0.64272145    -0.08460
C1204       C  0.32701638  0.14071465  0.66336110    -0.05830
C1205       C  0.32149154  0.17601551  0.67513660     0.00100
C1206       C  0.31870638  0.21659180  0.66613816    -0.08370
C1207       C  0.31324476  0.25622153  0.67808055     0.62010
H1208       H  0.31406978  0.24991218  0.63820264     0.12710
H1209       H  0.32988068  0.11017710  0.67051781     0.12720
C1210       C  0.32927817  0.10400590  0.63076652     0.62250
F1211       F  0.30845177  0.29167423  0.66619705    -0.22920
F1212       F  0.34844816  0.26232893  0.69001678    -0.20250
F1213       F  0.27760723  0.25259473  0.68959218    -0.19930
F1214       F  0.36332223  0.10615204  0.61822567    -0.19980
F1215       F  0.29226798  0.09936797  0.61995238    -0.20300
F1216       F  0.33423710  0.06844430  0.64258115    -0.22980
C1217       C  0.09633555  0.27678277  0.58054079    -0.05810
C1218       C  0.07133053  0.26062169  0.56514906     0.00110
C1219       C  0.09055908  0.23636096  0.55039911    -0.08460
C1220       C  0.13373311  0.22678427  0.55240873    -0.05830
C1221       C  0.15791942  0.23991000  0.56867475     0.00100
C1222       C  0.13938229  0.26624456  0.58282571    -0.08370
C1223       C  0.16375659  0.28084012  0.60092706     0.62010
H1224       H  0.08112294  0.29543019  0.59160463     0.12710
H1225       H  0.14853844  0.20695476  0.54166700     0.12720
C1226       C  0.06582616  0.21930061  0.53289526     0.62250
F1227       F  0.13867317  0.30403655  0.61329278    -0.22920
F1228       F  0.19734097  0.30598043  0.59526284    -0.20250
F1229       F  0.17880497  0.24638611  0.61154445    -0.19930
F1230       F  0.04073204  0.25060564  0.52454282    -0.19980
F1231       F  0.04067473  0.18599566  0.53891087    -0.20300
F1232       F  0.09244247  0.20490002  0.51845449    -0.22980
C1233       C  0.25423910  0.16017208  0.35517699    -0.05810
C1234       C  0.28906750  0.17527172  0.36618805     0.00110
C1235       C  0.32732314  0.18436129  0.35630988    -0.08460
C1236       C  0.32860447  0.17914985  0.33574666    -0.05830
C1237       C  0.29371742  0.16389360  0.32480599     0.00100
C1238       C  0.25588338  0.15349700  0.33482444    -0.08370
C1239       C  0.21721269  0.13506206  0.32444416     0.62010
H1240       H  0.22520513  0.15284309  0.36275678     0.12710
H1241       H  0.35744072  0.18670908  0.32802923     0.12720
C1242       C  0.36689071  0.19874897  0.36720964     0.62250
F1243       F  0.18492104  0.12566330  0.33737415    -0.22920
F1244       F  0.22815054  0.09806343  0.31535736    -0.20250
F1245       F  0.20144069  0.16357687  0.31063525    -0.19930
F1246       F  0.37945732  0.16819476  0.38075405    -0.19980
F1247       F  0.35881720  0.23582964  0.37679238    -0.20300
F1248       F  0.40023992  0.20581750  0.35459171    -0.22980
C1249       C  0.11746154  0.18769187  0.42591287    -0.05810
C1250       C  0.14868347  0.21904666  0.42711199     0.00110
C1251       C  0.13612070  0.26191305  0.42750426    -0.08460
C1252       C  0.09245548  0.27126718  0.42796156    -0.05830
C1253       C  0.06160131  0.23942531  0.42767591     0.00100
C1254       C  0.07426503  0.19695931  0.42580532    -0.08370
C1255       C  0.04274822  0.16119565  0.42316816     0.62010
H1256       H  0.12710940  0.15515599  0.42501289     0.12710
H1257       H  0.08199779  0.30359761  0.42872719     0.12720
C1258       C  0.16808125  0.29759473  0.42745436     0.62250
F1259       F  0.06236122  0.12414457  0.41797375    -0.22920
F1260       F  0.01387487  0.17138300  0.40834452    -0.20250
F1261       F  0.02190285  0.15375895  0.44063236    -0.19930
F1262       F  0.19147415  0.29651899  0.41040954    -0.19980
F1263       F  0.19480875  0.29378961  0.44368175    -0.20300
F1264       F  0.14867519  0.33654132  0.42813064    -0.22980
C1265       C  0.29180105  0.23621714  0.49003561    -0.05810
C1266       C  0.31604811  0.20587585  0.48064052     0.00110
C1267       C  0.34437468  0.18043271  0.49180830    -0.08460
C1268       C  0.34523793  0.18408527  0.51241238    -0.05830
C1269       C  0.31794766  0.21161177  0.52201734     0.00100
C1270       C  0.29209174  0.23955539  0.51067381    -0.08370
C1271       C  0.26193314  0.26991438  0.52027727     0.62010
H1272       H  0.26984049  0.25482099  0.48115670     0.12710
H1273       H  0.36462201  0.16285108  0.52129129     0.12720
C1274       C  0.37171105  0.14793766  0.48197215     0.62250
F1275       F  0.24023982  0.29450258  0.50651440    -0.22920
F1276       F  0.28438408  0.29646661  0.53253151    -0.20250
F1277       F  0.23241094  0.24773212  0.53110881    -0.19930
F1278       F  0.39465034  0.16709116  0.46713472    -0.19980
F1279       F  0.34651899  0.11672817  0.47399978    -0.20300
F1280       F  0.39996730  0.12921180  0.49515313    -0.22980
C1281       C  0.23007898  0.82157298  0.64928904    -0.05810
C1282       C  0.20549348  0.79661144  0.63663794     0.00110
C1283       C  0.17757911  0.76621225  0.64483336    -0.08460
C1284       C  0.17171750  0.76567270  0.66534398    -0.05830
C1285       C  0.19191039  0.79497228  0.67754163     0.00100
C1286       C  0.22355816  0.82171026  0.66964547    -0.08370
C1287       C  0.25001233  0.85092087  0.68240417     0.62010
H1288       H  0.25221612  0.84377301  0.64289364     0.12710
H1289       H  0.14897043  0.74426898  0.67184368     0.12720
C1290       C  0.15180048  0.73652464  0.63211149     0.62250
F1291       F  0.28389482  0.86775003  0.67222568    -0.22920
F1292       F  0.26616975  0.82909435  0.69859495    -0.20250
F1293       F  0.22536787  0.88392555  0.68861612    -0.19930
F1294       F  0.17847055  0.71473502  0.61993518    -0.19980
F1295       F  0.12260509  0.75906320  0.62086613    -0.20300
F1296       F  0.12980294  0.70731098  0.64332093    -0.22980
C1297       C  0.18480478  0.00200995  0.58357825    -0.05810
C1298       C  0.21689962  0.97146255  0.58432379     0.00110
C1299       C  0.25992367  0.98441493  0.58503824    -0.08460
C1300       C  0.26894302  0.02768271  0.58426553    -0.05830
C1301       C  0.23679004  0.05810698  0.58305407     0.00100
C1302       C  0.19375825  0.04518504  0.58296605    -0.08370
C1303       C  0.15714032  0.07621985  0.58172633     0.62010
H1304       H  0.15212343  0.99173680  0.58319780     0.12710
H1305       H  0.30157323  0.03818690  0.58455045     0.12720
C1306       C  0.29633440  0.95331769  0.58680780     0.62250
F1307       F  0.11824735  0.05619025  0.58042466    -0.22920
F1308       F  0.16108582  0.10172258  0.56518105    -0.20250
F1309       F  0.15691911  0.10058390  0.59841195    -0.19930
F1310       F  0.29833529  0.92970121  0.56992630    -0.19980
F1311       F  0.29057269  0.92707755  0.60298233    -0.20300
F1312       F  0.33500327  0.97331055  0.58923241    -0.22980
C1313       C  0.15100115  0.85281932  0.35474698    -0.05810
C1314       C  0.18664615  0.83535792  0.36435595     0.00110
C1315       C  0.21681051  0.81325221  0.35344534    -0.08460
C1316       C  0.20884025  0.80751662  0.33319043    -0.05830
C1317       C  0.17338398  0.82568763  0.32347162     0.00100
C1318       C  0.14422760  0.84947938  0.33441245    -0.08370
C1319       C  0.10622339  0.87162301  0.32495036     0.62010
H1320       H  0.12854990  0.87008759  0.36341460     0.12710
H1321       H  0.23143323  0.79033209  0.32458702     0.12720
C1322       C  0.25863605  0.79932513  0.36267315     0.62250
F1323       F  0.08057279  0.88996389  0.33876655    -0.22920
F1324       F  0.08180143  0.84312169  0.31459402    -0.20250
F1325       F  0.11994594  0.90327672  0.31237586    -0.19930
F1326       F  0.25188944  0.77171052  0.37815461    -0.19980
F1327       F  0.28012839  0.83411437  0.36963438    -0.20300
F1328       F  0.28412945  0.77950499  0.34925375    -0.22980
C1329       C  0.27311226  0.98124154  0.40791918    -0.05810
C1330       C  0.26298870  0.96041091  0.42552771     0.00110
C1331       C  0.27032077  0.97989463  0.44378385    -0.08460
C1332       C  0.28341778  0.02200443  0.44376626    -0.05830
C1333       C  0.28829478  0.04449113  0.42607234     0.00100
C1334       C  0.28537373  0.02367732  0.40786183    -0.08370
C1335       C  0.29065510  0.04736280  0.38848741     0.62010
H1336       H  0.26692652  0.96545012  0.39415047     0.12710
H1337       H  0.28574771  0.03883866  0.45748939     0.12720
C1338       C  0.26093789  0.95720225  0.46303843     0.62250
F1339       F  0.28846761  0.02077893  0.37255461    -0.22920
F1340       F  0.32961114  0.06726965  0.38828537    -0.20250
F1341       F  0.25897927  0.07706817  0.38624426    -0.19930
F1342       F  0.28235121  0.91930405  0.46382515    -0.19980
F1343       F  0.21794249  0.94964349  0.46437511    -0.20300
F1344       F  0.27349811  0.98053010  0.47914483    -0.22980
C1345       C  0.22605987  0.83473722  0.49195603    -0.05810
C1346       C  0.18693184  0.83836540  0.48192996     0.00110
C1347       C  0.14918917  0.84097919  0.49286951    -0.08460
C1348       C  0.15156940  0.83640896  0.51327680    -0.05830
C1349       C  0.19032137  0.83464985  0.52347174     0.00100
C1350       C  0.22849580  0.83538344  0.51277961    -0.08370
C1351       C  0.27090924  0.84141189  0.52311336     0.62010
H1352       H  0.25470680  0.83502377  0.48338048     0.12710
H1353       H  0.12276083  0.83733305  0.52162302     0.12720
C1354       C  0.10653224  0.85097855  0.48335131     0.62250
F1355       F  0.30405355  0.84154531  0.50999409    -0.22920
F1356       F  0.27801246  0.80961782  0.53677379    -0.20250
F1357       F  0.27098906  0.87945614  0.53269978    -0.19930
F1358       F  0.09993666  0.82536334  0.46749972    -0.19980
F1359       F  0.10572328  0.89258885  0.47712903    -0.20300
F1360       F  0.07331332  0.84481063  0.49617239    -0.22980
C1361       C  0.82399696  0.88764512  0.35288794    -0.05810
C1362       C  0.80015296  0.91541254  0.36418362     0.00110
C1363       C  0.77341470  0.94517924  0.35442436    -0.08460
C1364       C  0.77475296  0.94868364  0.33376680    -0.05830
C1365       C  0.80231594  0.92414729  0.32273258     0.00100
C1366       C  0.82587996  0.89165307  0.33227141    -0.08370
C1367       C  0.85327478  0.86151259  0.32088764     0.62010
H1368       H  0.84391778  0.86468487  0.36042884     0.12710
H1369       H  0.75598273  0.97251389  0.32616836     0.12720
C1370       C  0.74456158  0.97422837  0.36559348     0.62250
F1371       F  0.86752096  0.82834497  0.33262754    -0.22920
F1372       F  0.88832096  0.88246049  0.31368399    -0.20250
F1373       F  0.83015750  0.84487082  0.30539611    -0.19930
F1374       F  0.76809941  0.00603385  0.37409161    -0.19980
F1375       F  0.72351369  0.95175924  0.38006022    -0.20300
F1376       F  0.71438761  0.99267735  0.35328092    -0.22980
C1377       C  0.03840347  0.88888182  0.39934810    -0.05810
C1378       C  0.05244853  0.85543527  0.41137756     0.00110
C1379       C  0.02239695  0.82538658  0.41808074    -0.08460
C1380       C  0.97904810  0.83627350  0.41695006    -0.05830
C1381       C  0.96578908  0.87350983  0.40736477     0.00100
C1382       C  0.99540275  0.89660461  0.39611434    -0.08370
C1383       C  0.98368836  0.92893544  0.38035103     0.62010
H1384       H  0.06136160  0.90931010  0.39226988     0.12710
H1385       H  0.95568250  0.81690155  0.42429620     0.12720
C1386       C  0.03534393  0.78238407  0.42589440     0.62250
F1387       F  0.00315883  0.91843609  0.36298816    -0.22920
F1388       F  0.99814387  0.96800657  0.38596812    -0.20250
F1389       F  0.94061541  0.93088405  0.37651876    -0.19930
F1390       F  0.05919158  0.78593591  0.44285156    -0.19980
F1391       F  0.05889440  0.76217055  0.41189016    -0.20300
F1392       F  0.00051037  0.75751039  0.43011243    -0.22980
C1393       C  0.83901536  0.08490813  0.42265235    -0.05810
C1394       C  0.87313048  0.05659276  0.42154445     0.00110
C1395       C  0.91520916  0.07242907  0.42219643    -0.08460
C1396       C  0.92130003  0.11556707  0.42459910    -0.05830
C1397       C  0.88757077  0.14391356  0.42571024     0.00100
C1398       C  0.84550092  0.12869363  0.42426998    -0.08370
C1399       C  0.80783321  0.15814595  0.42457264     0.62010
H1400       H  0.80709933  0.07249983  0.42189450     0.12710
H1401       H  0.95315418  0.12782900  0.42507310     0.12720
C1402       C  0.95402459  0.04466884  0.42013393     0.62250
F1403       F  0.76981041  0.13641384  0.42465103    -0.22920
F1404       F  0.80806915  0.18398620  0.40802265    -0.20250
F1405       F  0.80978650  0.18246182  0.44125684    -0.19930
F1406       F  0.95362333  0.02745612  0.40159858    -0.19980
F1407       F  0.95415488  0.01315883  0.43439528    -0.20300
F1408       F  0.99153083  0.06684536  0.42219456    -0.22980
C1409       C  0.79716727  0.89815292  0.64477970    -0.05810
C1410       C  0.80955085  0.93282875  0.63327403     0.00110
C1411       C  0.82227626  0.97062634  0.64262719    -0.08460
C1412       C  0.82033634  0.97279673  0.66320035    -0.05830
C1413       C  0.80783011  0.93828446  0.67468380     0.00100
C1414       C  0.79655589  0.90001904  0.66546720    -0.08370
C1415       C  0.78626607  0.86070905  0.67740002     0.62010
H1416       H  0.78910463  0.86919011  0.63740771     0.12710
H1417       H  0.82944661  0.00142379  0.67059716     0.12720
C1418       C  0.84113588  0.00746419  0.63123029     0.62250
F1419       F  0.78244313  0.82578065  0.66563117    -0.22920
F1420       F  0.74851429  0.86614659  0.68702381    -0.20250
F1421       F  0.81820925  0.85274921  0.69108807    -0.19930
F1422       F  0.81143810  0.02396395  0.61814588    -0.19980
F1423       F  0.87614861  0.99395883  0.62113767    -0.20300
F1424       F  0.85424576  0.03953236  0.64346944    -0.22980
C1425       C  0.97735485  0.83628568  0.57304271    -0.05810
C1426       C  0.96127016  0.86034972  0.58830608     0.00110
C1427       C  0.98597941  0.86683625  0.60551943    -0.08460
C1428       C  0.02861450  0.85494769  0.60549705    -0.05830
C1429       C  0.04659968  0.83649116  0.58899368     0.00100
C1430       C  0.02014036  0.82408490  0.57304595    -0.08370
C1431       C  0.03745618  0.80149832  0.55540564     0.62010
H1432       H  0.95729051  0.83062304  0.56029089     0.12710
H1433       H  0.04897430  0.86288511  0.61787329     0.12720
C1434       C  0.96809888  0.88768116  0.62355977     0.62250
F1435       F  0.00601278  0.79217293  0.54174095    -0.22920
F1436       F  0.05608588  0.76409578  0.56148384    -0.20250
F1437       F  0.06710418  0.82664091  0.54620889    -0.19930
F1438       F  0.92833503  0.87157895  0.62751952    -0.19980
F1439       F  0.96521522  0.93061985  0.62044374    -0.20300
F1440       F  0.99359224  0.88054070  0.64001625    -0.22980
C1441       C  0.85251090  0.08521932  0.57744108    -0.05810
C1442       C  0.88573128  0.05591499  0.57934294     0.00110
C1443       C  0.92777276  0.07062569  0.58252794    -0.08460
C1444       C  0.93501134  0.11409879  0.58209849    -0.05830
C1445       C  0.90215282  0.14323283  0.57909989     0.00100
C1446       C  0.85984077  0.12882206  0.57748290    -0.08370
C1447       C  0.82267057  0.15886489  0.57537826     0.62010
H1448       H  0.82044884  0.07368913  0.57565495     0.12710
H1449       H  0.96699907  0.12585047  0.58394191     0.12720
C1450       C  0.96518867  0.04138783  0.58645839     0.62250
F1451       F  0.78451401  0.13778212  0.57327217    -0.22920
F1452       F  0.82776850  0.18449354  0.55895169    -0.20250
F1453       F  0.82023150  0.18326994  0.59199727    -0.19930
F1454       F  0.97253507  0.01734953  0.57006792    -0.19980
F1455       F  0.95696551  0.01552139  0.60250269    -0.20300
F1456       F  0.00210169  0.06326421  0.59066238    -0.22980
C1457       C  0.81329333  0.95084654  0.50856060    -0.05810
C1458       C  0.81726327  0.91346420  0.51958633     0.00110
C1459       C  0.81988804  0.87462198  0.50981385    -0.08460
C1460       C  0.81955364  0.87464002  0.48899314    -0.05830
C1461       C  0.81843397  0.91248574  0.47805611     0.00100
C1462       C  0.81476167  0.95118096  0.48793504    -0.08370
C1463       C  0.81522036  0.99294381  0.47675954     0.62010
H1464       H  0.81227535  0.98027349  0.51637280     0.12710
H1465       H  0.82340073  0.84549973  0.48118362     0.12720
C1466       C  0.82684281  0.83413383  0.52144081     0.62250
F1467       F  0.80910473  0.02666658  0.48904854    -0.22920
F1468       F  0.78327449  0.99345704  0.46263809    -0.20250
F1469       F  0.85386189  0.99843537  0.46773617    -0.19930
F1470       F  0.79370917  0.82775946  0.53422705    -0.19980
F1471       F  0.86428178  0.83661109  0.53217872    -0.20300
F1472       F  0.82939004  0.79977591  0.50931165    -0.22980
C1473       C  0.69872840  0.28235718  0.14238353    -0.05810
C1474       C  0.70135341  0.32298710  0.13426359     0.00110
C1475       C  0.70310954  0.35816215  0.14682598    -0.08460
C1476       C  0.69735331  0.35170831  0.16702794    -0.05830
C1477       C  0.69078075  0.31147959  0.17507077     0.00100
C1478       C  0.69319257  0.27579741  0.16275083    -0.08370
C1479       C  0.68717632  0.23131988  0.17068223     0.62010
H1480       H  0.69796074  0.25600339  0.13247498     0.12710
H1481       H  0.69671796  0.37852633  0.17666865     0.12720
C1482       C  0.70966221  0.40274103  0.13903967     0.62250
F1483       F  0.68820390  0.20185901  0.15589986    -0.22920
F1484       F  0.64844939  0.22800653  0.17983803    -0.20250
F1485       F  0.71911573  0.22153079  0.18404306    -0.19930
F1486       F  0.67208149  0.41829494  0.13123975    -0.19980
F1487       F  0.74026675  0.40328133  0.12466866    -0.20300
F1488       F  0.72302503  0.42935598  0.15383613    -0.22980
C1489       C  0.66170358  0.27698542  0.85906696    -0.05810
C1490       C  0.69622646  0.29902889  0.86700232     0.00110
C1491       C  0.72627810  0.31773660  0.85436808    -0.08460
C1492       C  0.71952543  0.31565372  0.83391421    -0.05830
C1493       C  0.68359009  0.29584292  0.82596585     0.00100
C1494       C  0.65458024  0.27532338  0.83859633    -0.08370
C1495       C  0.61482101  0.25448630  0.83054100     0.62010
H1496       H  0.63870162  0.26371074  0.86908746     0.12710
H1497       H  0.74155556  0.33072089  0.82395478     0.12720
C1498       C  0.76465651  0.34063792  0.86260689     0.62250
F1499       F  0.58909945  0.23953884  0.84543026    -0.22920
F1500       F  0.62571784  0.22090470  0.81898333    -0.20250
F1501       F  0.59172585  0.28322583  0.81931066    -0.19930
F1502       F  0.78627373  0.31443602  0.87569130    -0.19980
F1503       F  0.75201288  0.37627408  0.87232794    -0.20300
F1504       F  0.79225578  0.35281287  0.84792325    -0.22980
C1505       C  0.68675835  0.27083506  0.99016181    -0.05810
C1506       C  0.71536450  0.29723460  0.98013412     0.00110
C1507       C  0.74466576  0.32141176  0.99134773    -0.08460
C1508       C  0.74399657  0.31799654  0.01200520    -0.05830
C1509       C  0.71148926  0.29653421  0.02185961     0.00100
C1510       C  0.68227743  0.27215058  0.01075700    -0.08370
C1511       C  0.64334326  0.25209902  0.01998535     0.62010
H1512       H  0.66446580  0.25267655  0.98151725     0.12710
H1513       H  0.76585636  0.33656925  0.02070391     0.12720
C1514       C  0.77231926  0.35522305  0.98206313     0.62250
F1515       F  0.61884221  0.23079219  0.00632195    -0.22920
F1516       F  0.61834661  0.28299687  0.02797781    -0.20250
F1517       F  0.65508868  0.22365038  0.03458736    -0.19930
F1518       F  0.74672547  0.38587154  0.97350945    -0.19980
F1519       F  0.79772073  0.33811633  0.96795737    -0.20300
F1520       F  0.79852248  0.37454291  0.99572183    -0.22980
C1521       C  0.78227008  0.72641250  0.14501583    -0.05810
C1522       C  0.80871161  0.70209544  0.13316273     0.00110
C1523       C  0.83971704  0.67586318  0.14245691    -0.08460
C1524       C  0.83936481  0.67114213  0.16310433    -0.05830
C1525       C  0.80913041  0.69132529  0.17452597     0.00100
C1526       C  0.78182570  0.72140321  0.16558873    -0.08370
C1527       C  0.75225361  0.74804263  0.17766244     0.62010
H1528       H  0.75963054  0.74751293  0.13799210     0.12710
H1529       H  0.86117124  0.64954101  0.17039789     0.12720
C1530       C  0.87202569  0.65151113  0.13089536     0.62250
F1531       F  0.73363259  0.77983651  0.16642682    -0.22920
F1532       F  0.77467621  0.76653896  0.19289609    -0.20250
F1533       F  0.72031048  0.72324662  0.18532310    -0.19930
F1534       F  0.89059805  0.67769356  0.11703744    -0.19980
F1535       F  0.85254819  0.61807399  0.12164675    -0.20300
F1536       F  0.90396639  0.63550938  0.14299046    -0.22980
C1537       C  0.69355046  0.54149866  0.08240302    -0.05810
C1538       C  0.73654199  0.55229246  0.08078226     0.00110
C1539       C  0.76690593  0.52007803  0.07837359    -0.08460
C1540       C  0.75262355  0.47829742  0.07686209    -0.05830
C1541       C  0.70942049  0.46779172  0.07773770     0.00100
C1542       C  0.67925257  0.49987816  0.08106804    -0.08370
C1543       C  0.63222684  0.49086811  0.08353242     0.62010
H1544       H  0.67065636  0.56634682  0.08430825     0.12710
H1545       H  0.77530909  0.45338702  0.07465928     0.12720
C1546       C  0.81406103  0.52924307  0.07765976     0.62250
F1547       F  0.60997475  0.52630684  0.08887959    -0.22920
F1548       F  0.62655419  0.46066193  0.09812812    -0.20250
F1549       F  0.61493938  0.47699668  0.06597864    -0.19930
F1550       F  0.82619061  0.55232935  0.09388774    -0.19980
F1551       F  0.82326063  0.55155707  0.06062621    -0.20300
F1552       F  0.83788797  0.49273298  0.07782632    -0.22980
C1553       C  0.82660659  0.66368655  0.85758131    -0.05810
C1554       C  0.79197722  0.68797336  0.86359314     0.00110
C1555       C  0.76345767  0.70462361  0.84899714    -0.08460
C1556       C  0.77016050  0.69497613  0.82921093    -0.05830
C1557       C  0.80364087  0.66945758  0.82340621     0.00100
C1558       C  0.83284432  0.65383761  0.83767501    -0.08370
C1559       C  0.86901172  0.62519281  0.83208794     0.62010
H1560       H  0.84805207  0.65099675  0.86871662     0.12710
H1561       H  0.74859053  0.70692837  0.81792935     0.12720
C1562       C  0.72526446  0.73153169  0.85386683     0.62250
F1563       F  0.89106595  0.61013442  0.84846940    -0.22920
F1564       F  0.89723279  0.64689891  0.82034103    -0.20250
F1565       F  0.85323929  0.59105122  0.82193791    -0.19930
F1566       F  0.73791002  0.76504389  0.86529257    -0.19980
F1567       F  0.69558776  0.70748986  0.86375965    -0.20300
F1568       F  0.70551319  0.74795552  0.83712820    -0.22980
C1569       C  0.68766084  0.48880640  0.91485481    -0.05810
C1570       C  0.72041870  0.46090841  0.92013304     0.00110
C1571       C  0.76201632  0.47677956  0.92297812    -0.08460
C1572       C  0.76836738  0.52060304  0.92182660    -0.05830
C1573       C  0.73501604  0.54866692  0.91749075     0.00100
C1574       C  0.69399748  0.53229651  0.91317976    -0.08370
C1575       C  0.65653319  0.55976617  0.90686111     0.62010
H1576       H  0.65634431  0.47611704  0.91210881     0.12710
H1577       H  0.79963361  0.53336209  0.92461572     0.12720
C1578       C  0.79946501  0.44817769  0.92746198     0.62250
F1579       F  0.62152328  0.53615432  0.90139233    -0.22920
F1580       F  0.66734679  0.58452604  0.89077426    -0.20250
F1581       F  0.64458092  0.58489325  0.92226074    -0.19930
F1582       F  0.80551735  0.42144783  0.91188977    -0.19980
F1583       F  0.79211000  0.42488907  0.94439537    -0.20300
F1584       F  0.83659768  0.47062421  0.93031865    -0.22980
C1585       C  0.74775989  0.71060054  0.98658823    -0.05810
C1586       C  0.78735217  0.70596926  0.97802026     0.00110
C1587       C  0.82406912  0.70366685  0.99000295    -0.08460
C1588       C  0.81967375  0.70401195  0.01071170    -0.05830
C1589       C  0.77936894  0.70443949  0.01930941     0.00100
C1590       C  0.74279651  0.70913620  0.00700345    -0.08370
C1591       C  0.69805920  0.70894299  0.01496484     0.62010
H1592       H  0.72001525  0.71161464  0.97699519     0.12710
H1593       H  0.84727501  0.70068904  0.02023060     0.12720
C1594       C  0.86693917  0.69889383  0.98072103     0.62250
F1595       F  0.66874637  0.72307049  0.00103568    -0.22920
F1596       F  0.69539534  0.73482767  0.03104764    -0.20250
F1597       F  0.68710250  0.66831483  0.02027238    -0.19930
F1598       F  0.87440723  0.73297900  0.96836326    -0.19980
F1599       F  0.86786390  0.66244549  0.96989084    -0.20300
F1600       F  0.89895359  0.69672648  0.99474035    -0.22980
C1601       C  0.38851104  0.76227844  0.14626791    -0.05810
C1602       C  0.40258529  0.79547870  0.13420575     0.00110
C1603       C  0.42025338  0.83179279  0.14279140    -0.08460
C1604       C  0.42505920  0.83280437  0.16342123    -0.05830
C1605       C  0.41497818  0.79769828  0.17527358     0.00100
C1606       C  0.39460454  0.76257429  0.16676715    -0.08370
C1607       C  0.37968871  0.72542536  0.17917830     0.62010
H1608       H  0.37529578  0.73466408  0.13931040     0.12710
H1609       H  0.43984548  0.85971103  0.17029783     0.12720
C1610       C  0.43780595  0.86718457  0.13012588     0.62250
F1611       F  0.35535875  0.69773575  0.16826491    -0.22920
F1612       F  0.35524338  0.73952794  0.19446675    -0.20250
F1613       F  0.41416780  0.70356374  0.18676261    -0.19930
F1614       F  0.40721848  0.88125435  0.11692791    -0.19980
F1615       F  0.47199791  0.85274136  0.11973832    -0.20300
F1616       F  0.45102123  0.90091388  0.14130798    -0.22980
C1617       C  0.56421118  0.71337538  0.06509559    -0.05810
C1618       C  0.55079252  0.75040063  0.07409682     0.00110
C1619       C  0.58126335  0.77621520  0.08371952    -0.08460
C1620       C  0.62404684  0.76359309  0.08382900    -0.05830
C1621       C  0.63652341  0.72558018  0.07553522     0.00100
C1622       C  0.60625215  0.70009711  0.06576633    -0.08370
C1623       C  0.61532933  0.65861121  0.05573776     0.62010
H1624       H  0.54127678  0.69348306  0.05768511     0.12710
H1625       H  0.64792778  0.78227551  0.09125761     0.12720
C1626       C  0.56898802  0.81556872  0.09460810     0.62250
F1627       F  0.59395559  0.62661864  0.06542614    -0.22920
F1628       F  0.65758136  0.64808429  0.05530262    -0.20250
F1629       F  0.60069039  0.66084905  0.03645765    -0.19930
F1630       F  0.54192268  0.80493134  0.10971788    -0.19980
F1631       F  0.54933108  0.84376124  0.08177525    -0.20300
F1632       F  0.60382875  0.83552293  0.10283999    -0.22980
C1633       C  0.43414142  0.82383490  0.85669627    -0.05810
C1634       C  0.42181932  0.78464215  0.86443618     0.00110
C1635       C  0.41341044  0.75096709  0.85144109    -0.08460
C1636       C  0.42005623  0.75723219  0.83123767    -0.05830
C1637       C  0.43373911  0.79593837  0.82345733     0.00100
C1638       C  0.43959703  0.83045127  0.83630216    -0.08370
C1639       C  0.45246492  0.87374477  0.82877884     0.62010
H1640       H  0.44036524  0.84906185  0.86686454     0.12710
H1641       H  0.41481400  0.73141682  0.82127515     0.12720
C1642       C  0.39724925  0.70839636  0.85865429     0.62250
F1643       F  0.45890388  0.90167290  0.84397041    -0.22920
F1644       F  0.42085063  0.89000721  0.81661324    -0.20250
F1645       F  0.48979341  0.87102718  0.81846981    -0.19930
F1646       F  0.36392752  0.71383016  0.87136652    -0.19980
F1647       F  0.42948024  0.68655057  0.86822494    -0.20300
F1648       F  0.38273584  0.68394703  0.84326442    -0.22980
C1649       C  0.58021313  0.77396322  0.92262824    -0.05810
C1650       C  0.55269643  0.74591209  0.93232695     0.00110
C1651       C  0.56968895  0.70988794  0.94227945    -0.08460
C1652       C  0.61309889  0.70219059  0.94093942    -0.05830
C1653       C  0.63984562  0.72818767  0.92986271     0.00100
C1654       C  0.62376960  0.76559520  0.92108164    -0.08370
C1655       C  0.65170614  0.79541371  0.90940050     0.62010
H1656       H  0.56701022  0.80164644  0.91541558     0.12710
H1657       H  0.62640539  0.67425074  0.94790678     0.12720
C1658       C  0.54280597  0.67837645  0.95373202     0.62250
F1659       F  0.62908562  0.82907920  0.90152512    -0.22920
F1660       F  0.66984667  0.77427845  0.89402281    -0.20250
F1661       F  0.68318951  0.81127097  0.92154720    -0.19930
F1662       F  0.51704573  0.65631414  0.94087947    -0.19980
F1663       F  0.51839886  0.69908058  0.96726616    -0.20300
F1664       F  0.56731311  0.64924149  0.96406623    -0.22980
C1665       C  0.41681793  0.83118781  0.98860737    -0.05810
C1666       C  0.38793660  0.80580134  0.97821444     0.00110
C1667       C  0.35844162  0.78119862  0.98905251    -0.08460
C1668       C  0.36072435  0.78139303  0.00975353    -0.05830
C1669       C  0.39199295  0.80385904  0.02014380     0.00100
C1670       C  0.42066678  0.82948590  0.00931543    -0.08370
C1671       C  0.45777222  0.85184384  0.01912757     0.62010
H1672       H  0.43914533  0.84975765  0.98020789     0.12710
H1673       H  0.33956156  0.76130102  0.01803768     0.12720
C1674       C  0.32690872  0.75188964  0.97914589     0.62250
F1675       F  0.48210905  0.87396478  0.00569667    -0.22920
F1676       F  0.48393490  0.82262963  0.02845181    -0.20250
F1677       F  0.44305507  0.88012961  0.03267373    -0.19930
F1678       F  0.34855150  0.72025861  0.96986169    -0.19980
F1679       F  0.30232534  0.77408677  0.96557696    -0.20300
F1680       F  0.29981024  0.73301671  0.99247901    -0.22980
C1681       C  0.28956473  0.42761271  0.14232328    -0.05810
C1682       C  0.32706466  0.40926597  0.13571169     0.00110
C1683       C  0.35816116  0.39525543  0.14965259    -0.08460
C1684       C  0.35202718  0.40341051  0.16962781    -0.05830
C1685       C  0.31573511  0.42384221  0.17604905     0.00100
C1686       C  0.28330337  0.43522111  0.16241931    -0.08370
C1687       C  0.24352974  0.45744972  0.16897151     0.62010
H1688       H  0.26626928  0.43821639  0.13152442     0.12710
H1689       H  0.37608149  0.39451780  0.18043424     0.12720
C1690       C  0.39820141  0.37250667  0.14370673     0.62250
F1691       F  0.21844315  0.47024799  0.15313840    -0.22920
F1692       F  0.25433168  0.49279825  0.17956085    -0.20250
F1693       F  0.21993591  0.43059048  0.18067906    -0.19930
F1694       F  0.42702563  0.40102711  0.13613693    -0.19980
F1695       F  0.38867972  0.34256276  0.12975335    -0.20300
F1696       F  0.41725972  0.35204040  0.15962995    -0.22980
C1697       C  0.52320758  0.33316455  0.05678096    -0.05810
C1698       C  0.54607345  0.33108242  0.07460167     0.00110
C1699       C  0.52486856  0.33549883  0.09271410    -0.08460
C1700       C  0.48166554  0.34577341  0.09217918    -0.05830
C1701       C  0.46001650  0.35186308  0.07427346     0.00100
C1702       C  0.48000164  0.34333906  0.05636069    -0.08370
C1703       C  0.45573063  0.34636245  0.03699922     0.62010
H1704       H  0.54001636  0.32919511  0.04314513     0.12710
H1705       H  0.46533308  0.35270084  0.10566254     0.12720
C1706       C  0.54837100  0.33330957  0.11237752     0.62250
F1707       F  0.48035415  0.33478386  0.02129009    -0.22920
F1708       F  0.44193824  0.38713895  0.03367684    -0.20250
F1709       F  0.42108422  0.31977397  0.03778339    -0.19930
F1710       F  0.57925270  0.36416045  0.11299743    -0.19980
F1711       F  0.56703163  0.29425885  0.11485341    -0.20300
F1712       F  0.52158065  0.33934257  0.12804360    -0.22980
C1713       C  0.40165889  0.56775630  0.09059519    -0.05810
C1714       C  0.36159064  0.55381834  0.08433885     0.00110
C1715       C  0.32915929  0.58375302  0.08032385    -0.08460
C1716       C  0.34008158  0.62677429  0.08005652    -0.05830
C1717       C  0.38160199  0.64001735  0.08419629     0.00100
C1718       C  0.41213617  0.61038951  0.09098122    -0.08370
C1719       C  0.45583554  0.62315964  0.09856514     0.62010
H1720       H  0.42558807  0.54474331  0.09467458     0.12710
H1721       H  0.31677315  0.65024588  0.07578638     0.12720
C1722       C  0.28380183  0.57076595  0.07595987     0.62250
F1723       F  0.47532003  0.59073107  0.10905965    -0.22920
F1724       F  0.45254012  0.65692557  0.11105957    -0.20250
F1725       F  0.48151749  0.63391649  0.08295938    -0.19930
F1726       F  0.26822454  0.54779164  0.09172918    -0.19980
F1727       F  0.28212791  0.54668902  0.05921974    -0.20300
F1728       F  0.25762453  0.60519656  0.07290501    -0.22980
C1729       C  0.31276069  0.38832805  0.85424384    -0.05810
C1730       C  0.32260300  0.42485395  0.86461480     0.00110
C1731       C  0.33008379  0.46309540  0.85425894    -0.08460
C1732       C  0.32815382  0.46327307  0.83367149    -0.05830
C1733       C  0.32004395  0.42658509  0.82309600     0.00100
C1734       C  0.31202704  0.38819533  0.83347330    -0.08370
C1735       C  0.30552811  0.34681676  0.82291588     0.62010
H1736       H  0.30791148  0.35944879  0.86256775     0.12710
H1737       H  0.33378062  0.49232598  0.82560470     0.12720
C1738       C  0.34032792  0.50374744  0.86486238     0.62250
F1739       F  0.30278072  0.31310241  0.83597412    -0.22920
F1740       F  0.33929687  0.33964987  0.81066429    -0.20250
F1741       F  0.26849042  0.34797020  0.81188945    -0.19930
F1742       F  0.37984526  0.50102989  0.87376746    -0.19980
F1743       F  0.31019126  0.51104207  0.87895900    -0.20300
F1744       F  0.34072352  0.53810233  0.85209918    -0.22980
C1745       C  0.48926723  0.36781349  0.94535919    -0.05810
C1746       C  0.46513898  0.36193519  0.92817017     0.00110
C1747       C  0.48327230  0.34190094  0.91183155    -0.08460
C1748       C  0.52657626  0.33167173  0.91278864    -0.05830
C1749       C  0.55155179  0.34134612  0.92936313     0.00100
C1750       C  0.53224969  0.35727964  0.94639218    -0.08370
C1751       C  0.55670842  0.36397472  0.96551437     0.62010
H1752       H  0.47464862  0.38277998  0.95775718     0.12710
H1753       H  0.54186052  0.31859822  0.90009501     0.12720
C1754       C  0.45796296  0.33396381  0.89307491     0.62250
F1755       F  0.52975478  0.36938325  0.98117204    -0.22920
F1756       F  0.58183076  0.39946724  0.96390221    -0.20250
F1757       F  0.58184688  0.32934126  0.96980813    -0.19930
F1758       F  0.44256598  0.37157056  0.88541808    -0.19980
F1759       F  0.42447135  0.30729524  0.89712589    -0.20300
F1760       F  0.48230803  0.31543894  0.87881362    -0.22980
C1761       C  0.33614975  0.57994267  0.92402261    -0.05810
C1762       C  0.37139227  0.55304404  0.92289701     0.00110
C1763       C  0.41255669  0.57051432  0.92103043    -0.08460
C1764       C  0.41695585  0.61412930  0.92188549    -0.05830
C1765       C  0.38217836  0.64087582  0.92406951     0.00100
C1766       C  0.34078054  0.62397044  0.92441750    -0.08370
C1767       C  0.30200070  0.65183741  0.92558018     0.62010
H1768       H  0.30484973  0.56615815  0.92488146     0.12710
H1769       H  0.44822497  0.62793188  0.92087299     0.12720
C1770       C  0.45201107  0.54404707  0.91792146     0.62250
F1771       F  0.26503937  0.62855326  0.92693178    -0.22920
F1772       F  0.29896901  0.67705031  0.90886615    -0.20250
F1773       F  0.30503567  0.67685404  0.94198046    -0.19930
F1774       F  0.44548240  0.51717811  0.90234658    -0.19980
F1775       F  0.46155813  0.52106154  0.93483859    -0.20300
F1776       F  0.48702667  0.56857025  0.91354828    -0.22980
C1777       C  0.28447220  0.42964020  0.98893002    -0.05810
C1778       C  0.30993294  0.40043939  0.97922013     0.00110
C1779       C  0.33628517  0.37283478  0.99059356    -0.08460
C1780       C  0.33553897  0.37520899  0.01123775    -0.05830
C1781       C  0.31286609  0.40661832  0.02064415     0.00100
C1782       C  0.28686059  0.43430906  0.00949035    -0.08370
C1783       C  0.26411946  0.47026288  0.01922637     0.62010
H1784       H  0.26557077  0.45140526  0.98011510     0.12710
H1785       H  0.35598957  0.35519780  0.02018751     0.12720
C1786       C  0.36900147  0.34480971  0.98116881     0.62250
F1787       F  0.23744633  0.49147512  0.00615723    -0.22920
F1788       F  0.29362697  0.49849785  0.02639351    -0.20250
F1789       F  0.24012230  0.45516377  0.03467221    -0.19930
F1790       F  0.39637428  0.36926505  0.97014941    -0.19980
F1791       F  0.34913032  0.31586235  0.96919882    -0.20300
F1792       F  0.39313497  0.32285985  0.99502776    -0.22980
C1793       C  0.81736685  0.22197447  0.85313875    -0.05810
C1794       C  0.79778307  0.19340631  0.86613872     0.00110
C1795       C  0.77643816  0.15783631  0.85827322    -0.08460
C1796       C  0.77830489  0.15083449  0.83783183    -0.05830
C1797       C  0.80178053  0.17717763  0.82535038     0.00100
C1798       C  0.82014033  0.21435419  0.83289439    -0.08370
C1799       C  0.84283558  0.24587237  0.81969408     0.62010
H1800       H  0.83296252  0.24935308  0.85917162     0.12710
H1801       H  0.76339463  0.12333051  0.83155881     0.12720
C1802       C  0.75390239  0.12600793  0.87130377     0.62250
F1803       F  0.85306610  0.28238914  0.82954331    -0.22920
F1804       F  0.81712369  0.25672963  0.80376601    -0.20250
F1805       F  0.88002347  0.22856899  0.81304665    -0.19930
F1806       F  0.72341762  0.14606426  0.88214136    -0.19980
F1807       F  0.78281740  0.10645274  0.88386246    -0.20300
F1808       F  0.73388623  0.09511779  0.86043017    -0.22980
C1809       C  0.81462867  0.22314984  0.14575935    -0.05810
C1810       C  0.80310111  0.18911036  0.13381569     0.00110
C1811       C  0.78933172  0.15090540  0.14293760    -0.08460
C1812       C  0.78867125  0.14818158  0.16361385    -0.05830
C1813       C  0.80325618  0.18103496  0.17535168     0.00100
C1814       C  0.81532880  0.21965821  0.16645935    -0.08370
C1815       C  0.82871541  0.25696532  0.17878149     0.62010
H1816       H  0.82504909  0.25205363  0.13871131     0.12710
H1817       H  0.77905099  0.11924506  0.17088929     0.12720
C1818       C  0.77844516  0.11187461  0.13123179     0.62250
F1819       F  0.83476407  0.29278055  0.16732152    -0.22920
F1820       F  0.86632980  0.24805931  0.18861722    -0.20250
F1821       F  0.79778404  0.26557685  0.19235442    -0.19930
F1822       F  0.81329139  0.09957066  0.12066063    -0.19980
F1823       F  0.74477960  0.12021058  0.11854871    -0.20300
F1824       F  0.76699893  0.07832164  0.14325566    -0.22980
C1825       C  0.83958022  0.24237355  0.01081210    -0.05810
C1826       C  0.81026547  0.21795387  0.02117776     0.00110
C1827       C  0.77725484  0.19744531  0.01087659    -0.08460
C1828       C  0.77585755  0.20022836  0.99015178    -0.05830
C1829       C  0.80751913  0.22152281  0.97963491     0.00100
C1830       C  0.83964570  0.24350118  0.99010890    -0.08370
C1831       C  0.87695603  0.26336434  0.97960673     0.62010
H1832       H  0.86516948  0.25687522  0.01906248     0.12710
H1833       H  0.75227207  0.18261299  0.98197973     0.12720
C1834       C  0.74646154  0.16932771  0.02176708     0.62250
F1835       F  0.90426244  0.28364209  0.99246877    -0.22920
F1836       F  0.86270731  0.29254979  0.96588615    -0.20250
F1837       F  0.89958062  0.23261112  0.97018834    -0.19930
F1838       F  0.72981884  0.19073000  0.03740113    -0.19980
F1839       F  0.76745882  0.13407324  0.02894515    -0.20300
F1840       F  0.71337716  0.15648428  0.00969242    -0.22980
C1841       C  0.18763500  0.32500543  0.85620658    -0.05810
C1842       C  0.19761112  0.28469111  0.86356935     0.00110
C1843       C  0.20418910  0.25149755  0.85021031    -0.08460
C1844       C  0.19692276  0.25907650  0.83011771    -0.05830
C1845       C  0.18358722  0.29836317  0.82276055     0.00100
C1846       C  0.18021323  0.33257598  0.83589328    -0.08370
C1847       C  0.16671080  0.37615308  0.82885588     0.62010
H1848       H  0.18311331  0.34994414  0.86663824     0.12710
H1849       H  0.20061181  0.23347310  0.81995481     0.12720
C1850       C  0.21731821  0.20743582  0.85689357     0.62250
F1851       F  0.16263296  0.40361335  0.84432989    -0.22920
F1852       F  0.12796147  0.37380178  0.81918840    -0.20250
F1853       F  0.19650677  0.39283176  0.81622928    -0.19930
F1854       F  0.18261906  0.18590426  0.86412507    -0.19980
F1855       F  0.24854522  0.20950767  0.87133578    -0.20300
F1856       F  0.23336934  0.18455302  0.84151271    -0.22980
C1857       C  0.02348094  0.28685186  0.92282340    -0.05810
C1858       C  0.04993718  0.25256473  0.91884907     0.00110
C1859       C  0.03166067  0.21407266  0.91288268    -0.08460
C1860       C  0.98798480  0.20938748  0.91375532    -0.05830
C1861       C  0.96170022  0.24161354  0.91995635     0.00100
C1862       C  0.97896583  0.28197306  0.92335050    -0.08370
C1863       C  0.95103176  0.31879003  0.92818716     0.62010
H1864       H  0.03792671  0.31662164  0.92649644     0.12710
H1865       H  0.97410214  0.17947264  0.91038056     0.12720
C1866       C  0.05736440  0.17556295  0.90812596     0.62250
F1867       F  0.97426821  0.35526436  0.93083961    -0.22920
F1868       F  0.92961225  0.31008731  0.94530896    -0.20250
F1869       F  0.92222044  0.32583555  0.91298804    -0.19930
F1870       F  0.06852924  0.15623837  0.92574681    -0.19980
F1871       F  0.09299509  0.18602532  0.89747382    -0.20300
F1872       F  0.03423431  0.14729509  0.89700526    -0.22980
C1873       C  0.22300664  0.27053040  0.14790557    -0.05810
C1874       C  0.20804734  0.30341353  0.13557941     0.00110
C1875       C  0.18762908  0.33821737  0.14415137    -0.08460
C1876       C  0.18081775  0.33750432  0.16459732    -0.05830
C1877       C  0.19215893  0.30271657  0.17650932     0.00100
C1878       C  0.21473197  0.26904205  0.16817910    -0.08370
C1879       C  0.22963100  0.23131771  0.18042393     0.62010
H1880       H  0.23864144  0.24408682  0.14129772     0.12710
H1881       H  0.16424003  0.36329255  0.17128340     0.12720
C1882       C  0.17168727  0.37535369  0.13189428     0.62250
F1883       F  0.25549283  0.20506756  0.16985036    -0.22920
F1884       F  0.19508764  0.20798591  0.18651001    -0.20250
F1885       F  0.25246264  0.24471165  0.19669366    -0.19930
F1886       F  0.13605307  0.36383154  0.12121256    -0.19980
F1887       F  0.20288473  0.38892088  0.11918979    -0.20300
F1888       F  0.16072910  0.40881825  0.14354444    -0.22980
C1889       C  0.04671071  0.20261334  0.09021077    -0.05810
C1890       C  0.05865746  0.24373940  0.08492302     0.00110
C1891       C  0.02670615  0.27386379  0.08044715    -0.08460
C1892       C  0.98403580  0.26069188  0.08036155    -0.05830
C1893       C  0.97237762  0.21888356  0.08468667     0.00100
C1894       C  0.00445012  0.18930573  0.09018204    -0.08370
C1895       C  0.99531661  0.14342901  0.09555892     0.62010
H1896       H  0.07123420  0.18004713  0.09392404     0.12710
H1897       H  0.95933933  0.28301605  0.07651091     0.12720
C1898       C  0.03709517  0.31952943  0.07576882     0.62250
F1899       F  0.03167860  0.12134035  0.10070829    -0.22920
F1900       F  0.97701681  0.12339696  0.07963017    -0.20250
F1901       F  0.96867087  0.14125989  0.11153081    -0.19930
F1902       F  0.05931484  0.32228792  0.05840325    -0.19980
F1903       F  0.06108008  0.33623624  0.09095955    -0.20300
F1904       F  0.00096105  0.34381565  0.07351729    -0.22980
C1905       C  0.20840413  0.32177878  0.98964052    -0.05810
C1906       C  0.20842254  0.28401224  0.97918956     0.00110
C1907       C  0.20674049  0.24516932  0.98968427    -0.08460
C1908       C  0.20806898  0.24531696  0.01025696    -0.05830
C1909       C  0.20705037  0.28273917  0.02082813     0.00100
C1910       C  0.20661938  0.32169859  0.01046286    -0.08370
C1911       C  0.20113607  0.36240723  0.02128995     0.62010
H1912       H  0.20774845  0.35113405  0.98135893     0.12710
H1913       H  0.20751048  0.21572195  0.01836033     0.12720
C1914       C  0.19917556  0.20379874  0.97928710     0.62250
F1915       F  0.19896098  0.39658881  0.00849021    -0.22920
F1916       F  0.23488828  0.36797363  0.03409118    -0.20250
F1917       F  0.16409135  0.36100611  0.03189315    -0.19930
F1918       F  0.23287293  0.19498654  0.96730804    -0.19980
F1919       F  0.16235220  0.20680843  0.96812915    -0.20300
F1920       F  0.19441245  0.17034019  0.99235810    -0.22980
C1921       C  0.28625848  0.97002677  0.85794305    -0.05810
C1922       C  0.29866838  0.93162738  0.86676303     0.00110
C1923       C  0.31445377  0.89925366  0.85492281    -0.08460
C1924       C  0.31749733  0.90664110  0.83453933    -0.05830
C1925       C  0.30351692  0.94446976  0.82563665     0.00100
C1926       C  0.28779437  0.97698603  0.83752246    -0.08370
C1927       C  0.27246185  0.01875154  0.82890612     0.62010
H1928       H  0.27402433  0.99441689  0.86724193     0.12710
H1929       H  0.32936963  0.88205732  0.82525146     0.12720
C1930       C  0.32611870  0.85663048  0.86358356     0.62250
F1931       F  0.26343373  0.04739132  0.84340382    -0.22920
F1932       F  0.23581478  0.01258100  0.81793519    -0.20250
F1933       F  0.30332537  0.03625513  0.81706474    -0.19930
F1934       F  0.29184476  0.83954893  0.87333052    -0.19980
F1935       F  0.35954649  0.86124149  0.87666585    -0.20300
F1936       F  0.33798013  0.82868978  0.84925334    -0.22980
C1937       C  0.21475472  0.06066866  0.93777791    -0.05810
C1938       C  0.25425697  0.05012619  0.93035783     0.00110
C1939       C  0.28005541  0.08200641  0.92195989    -0.08460
C1940       C  0.26465575  0.12370302  0.92146872    -0.05830
C1941       C  0.22318481  0.13335028  0.92733170     0.00100
C1942       C  0.19722183  0.10042374  0.93487038    -0.08370
C1943       C  0.14990448  0.10465581  0.93750434     0.62010
H1944       H  0.19577234  0.03606592  0.94444073     0.12710
H1945       H  0.28413103  0.14870810  0.91547923     0.12720
C1946       C  0.32235185  0.07205395  0.91279114     0.62250
F1947       F  0.13095068  0.06757488  0.94376020    -0.22920
F1948       F  0.13237794  0.11505823  0.91936649    -0.20250
F1949       F  0.14097419  0.13478253  0.95124267    -0.19930
F1950       F  0.31655467  0.04350137  0.89781912    -0.19980
F1951       F  0.34956851  0.05524375  0.92694167    -0.20300
F1952       F  0.34132418  0.10758137  0.90481814    -0.22980
C1953       C  0.31604054  0.88284508  0.14846660    -0.05810
C1954       C  0.33087273  0.91519044  0.13603306     0.00110
C1955       C  0.34877003  0.95191066  0.14453693    -0.08460
C1956       C  0.34715813  0.95635815  0.16507335    -0.05830
C1957       C  0.32753206  0.92625546  0.17713827     0.00100
C1958       C  0.31384835  0.88771854  0.16895063    -0.08370
C1959       C  0.29651771  0.85199559  0.18159078     0.62010
H1960       H  0.30354062  0.85453913  0.14186945     0.12710
H1961       H  0.35870735  0.98492619  0.17177250     0.12720
C1962       C  0.36686784  0.98776862  0.13220214     0.62250
F1963       F  0.29244963  0.81517683  0.17110205    -0.22920
F1964       F  0.25695332  0.86251944  0.18842794    -0.20250
F1965       F  0.32361457  0.84408895  0.19738715    -0.19930
F1966       F  0.33511458  0.00602641  0.12075917    -0.19980
F1967       F  0.39839076  0.97278359  0.12026865    -0.20300
F1968       F  0.38453025  0.01891761  0.14374793    -0.22980
C1969       C  0.28747410  0.08290632  0.08292061    -0.05810
C1970       C  0.25487270  0.05277055  0.08254177     0.00110
C1971       C  0.21200836  0.06623036  0.08157609    -0.08460
C1972       C  0.20358192  0.10926662  0.08172079    -0.05830
C1973       C  0.23585203  0.13953259  0.08233360     0.00100
C1974       C  0.27874919  0.12640207  0.08275061    -0.08370
C1975       C  0.31503717  0.15768562  0.08326416     0.62010
H1976       H  0.31995145  0.07204140  0.08340770     0.12710
H1977       H  0.17098421  0.11970547  0.08108075     0.12720
C1978       C  0.17482526  0.03599020  0.07957924     0.62250
F1979       F  0.35392783  0.13789440  0.08517324    -0.22920
F1980       F  0.31061483  0.18409121  0.09909257    -0.20250
F1981       F  0.31514006  0.18117201  0.06597049    -0.19930
F1982       F  0.17067741  0.01237404  0.09670611    -0.19980
F1983       F  0.18123010  0.00997293  0.06377123    -0.20300
F1984       F  0.13681326  0.05673253  0.07623671    -0.22980
C1985       C  0.29988143  0.86810030  0.99271777    -0.05810
C1986       C  0.31489378  0.90257156  0.98175138     0.00110
C1987       C  0.33155342  0.93792614  0.99161561    -0.08460
C1988       C  0.33383141  0.93694572  0.01230052    -0.05830
C1989       C  0.31653121  0.90351492  0.02327733     0.00100
C1990       C  0.29905150  0.86851817  0.01341553    -0.08370
C1991       C  0.27451538  0.83473242  0.02446498     0.62010
H1992       H  0.28471241  0.84272394  0.98485193     0.12710
H1993       H  0.34528916  0.96421068  0.02013617     0.12720
C1994       C  0.34159603  0.97843013  0.98047337     0.62250
F1995       F  0.26028630  0.80334339  0.01211959    -0.22920
F1996       F  0.23962381  0.85263460  0.03306282    -0.20250
F1997       F  0.29973549  0.81636709  0.03896289    -0.19930
F1998       F  0.30502753  0.99389465  0.97156662    -0.19980
F1999       F  0.37131246  0.97086742  0.96622381    -0.20300
F2000       F  0.35744357  0.00916553  0.99278272    -0.22980
C2001       C  0.92915467  0.79885732  0.85695753    -0.05810
C2002       C  0.94228495  0.83821432  0.86381477     0.00110
C2003       C  0.95422076  0.87001509  0.84999352    -0.08460
C2004       C  0.95538272  0.85999135  0.83000994    -0.05830
C2005       C  0.94437145  0.82004525  0.82313610     0.00100
C2006       C  0.92971433  0.78906105  0.83677814    -0.08370
C2007       C  0.91537641  0.74568788  0.83041328     0.62010
H2008       H  0.91947379  0.77533442  0.86767003     0.12710
H2009       H  0.96554466  0.88370465  0.81949749     0.12720
C2010       C  0.96569866  0.91468229  0.85592678     0.62250
F2011       F  0.90391743  0.72064312  0.84630047    -0.22920
F2012       F  0.94793076  0.72566690  0.82091072    -0.20250
F2013       F  0.88050589  0.74921292  0.81794345    -0.19930
F2014       F  0.00486770  0.91498137  0.86529624    -0.19980
F2015       F  0.93527199  0.93037207  0.86828975    -0.20300
F2016       F  0.96795483  0.94171461  0.83980092    -0.22980
C2017       C  0.93432653  0.01155973  0.91782542    -0.05810
C2018       C  0.90377868  0.97959803  0.91884913     0.00110
C2019       C  0.86023351  0.99078897  0.91793948    -0.08460
C2020       C  0.84937936  0.03383422  0.91825658    -0.05830
C2021       C  0.88027916  0.06576986  0.91829682     0.00100
C2022       C  0.92367282  0.05423303  0.91700109    -0.08370
C2023       C  0.95920488  0.08604361  0.91443499     0.62010
H2024       H  0.96740069  0.00282217  0.91763049     0.12710
H2025       H  0.81637031  0.04288685  0.91845889     0.12720
C2026       C  0.82526578  0.95815368  0.91635915     0.62250
F2027       F  0.99817510  0.06709674  0.91190985    -0.22920
F2028       F  0.96254705  0.11087330  0.93091770    -0.20250
F2029       F  0.95099368  0.11048558  0.89781068    -0.19930
F2030       F  0.82558009  0.93240741  0.93287727    -0.19980
F2031       F  0.83114196  0.93422924  0.89978946    -0.20300
F2032       F  0.78557632  0.97642443  0.91475803    -0.22980
C2033       C  0.09985386  0.83531713  0.90531368    -0.05810
C2034       C  0.08038865  0.82872890  0.92350131     0.00110
C2035       C  0.10515571  0.82482366  0.94086766    -0.08460
C2036       C  0.14892494  0.83228436  0.93976565    -0.05830
C2037       C  0.16748178  0.84440423  0.92193021     0.00100
C2038       C  0.14339267  0.84383348  0.90426192    -0.08370
C2039       C  0.16298340  0.85617515  0.88473837     0.62010
H2040       H  0.08000312  0.83832092  0.89222607     0.12710
H2041       H  0.16802163  0.83334694  0.95312536     0.12720
C2042       C  0.08465785  0.81613565  0.96056214     0.62250
F2043       F  0.13487785  0.85090339  0.86914255    -0.22920
F2044       F  0.19810765  0.83142207  0.88156606    -0.20250
F2045       F  0.17521444  0.89794803  0.88499846    -0.19930
F2046       F  0.06102417  0.77956392  0.95951597    -0.19980
F2047       F  0.05832097  0.84910403  0.96525004    -0.20300
F2048       F  0.11449595  0.81126313  0.97554143    -0.22980
C2049       C  0.90071424  0.80634478  0.16734831    -0.05810
C2050       C  0.93918909  0.79089831  0.17495439     0.00110
C2051       C  0.96917583  0.77366937  0.16216479    -0.08460
C2052       C  0.96098972  0.77587100  0.14177775    -0.05830
C2053       C  0.92436183  0.79546005  0.13391321     0.00100
C2054       C  0.89231476  0.80853691  0.14698448    -0.08370
C2055       C  0.85032421  0.82680913  0.13984559     0.62010
H2056       H  0.87782694  0.81841625  0.17756024     0.12710
H2057       H  0.98481715  0.76489684  0.13178869     0.12720
C2058       C  0.01078413  0.75572794  0.16993067     0.62250
F2059       F  0.82125556  0.82853232  0.15488303    -0.22920
F2060       F  0.83308803  0.80200735  0.12521981    -0.20250
F2061       F  0.85631312  0.86728343  0.13266789    -0.19930
F2062       F  0.00296670  0.72106674  0.18186076    -0.19980
F2063       F  0.03224411  0.78581179  0.18069603    -0.20300
F2064       F  0.03678006  0.74317758  0.15487768    -0.22980
C2065       C  0.89466205  0.04203078  0.09412550    -0.05810
C2066       C  0.85999689  0.05242093  0.08194549     0.00110
C2067       C  0.83533157  0.02000562  0.07351366    -0.08460
C2068       C  0.84926995  0.97806029  0.07601821    -0.05830
C2069       C  0.88608244  0.96818178  0.08707309     0.00100
C2070       C  0.90706477  0.00044837  0.09757553    -0.08370
C2071       C  0.94339597  0.99330522  0.11206827     0.62010
H2072       H  0.91245412  0.06699691  0.10117486     0.12710
H2073       H  0.83282268  0.95298138  0.06847033     0.12720
C2074       C  0.79604619  0.02975384  0.06123393     0.62250
F2075       F  0.93885690  0.01908634  0.12813864    -0.22920
F2076       F  0.98086718  0.00358050  0.10294560    -0.20250
F2077       F  0.94515536  0.95239568  0.11920174    -0.19930
F2078       F  0.80637218  0.05620650  0.04568208    -0.19980
F2079       F  0.76629560  0.04904780  0.07278232    -0.20300
F2080       F  0.77789840  0.99372269  0.05362332    -0.22980
C2081       C  0.09813015  0.83343225  0.07866416    -0.05810
C2082       C  0.06974720  0.86749059  0.07879090     0.00110
C2083       C  0.08552345  0.90905267  0.07740874    -0.08460
C2084       C  0.12910278  0.91508525  0.07639649    -0.05830
C2085       C  0.15796758  0.88165862  0.07746424     0.00100
C2086       C  0.14246524  0.83981404  0.07836830    -0.08370
C2087       C  0.17214458  0.80243287  0.07965321     0.62010
H2088       H  0.08530577  0.80186327  0.07944388     0.12710
H2089       H  0.14104555  0.94680685  0.07540782     0.12720
C2090       C  0.05695991  0.94742238  0.07762724     0.62250
F2091       F  0.15028698  0.76482494  0.08144729    -0.22920
F2092       F  0.19865568  0.80610065  0.09592170    -0.20250
F2093       F  0.19611831  0.80081451  0.06281785    -0.19930
F2094       F  0.04038374  0.95099715  0.09621182    -0.19980
F2095       F  0.02463327  0.94362723  0.06381161    -0.20300
F2096       F  0.07857800  0.98428445  0.07337472    -0.22980
C2097       C  0.93357333  0.79738893  0.99017269    -0.05810
C2098       C  0.91944414  0.83342128  0.97988779     0.00110
C2099       C  0.90019232  0.86645912  0.99022298    -0.08460
C2100       C  0.89633560  0.86264832  0.01066563    -0.05830
C2101       C  0.91359357  0.82841643  0.02121578     0.00100
C2102       C  0.93188603  0.79472701  0.01091928    -0.08370
C2103       C  0.95261850  0.75813315  0.02187640     0.62010
H2104       H  0.94908666  0.77299996  0.98199249     0.12710
H2105       H  0.88293600  0.88831366  0.01882854     0.12720
C2106       C  0.88568506  0.90664024  0.97982683     0.62250
F2107       F  0.97074975  0.72994972  0.00917994    -0.22920
F2108       F  0.92261273  0.73695434  0.03286940    -0.20250
F2109       F  0.98429424  0.77276689  0.03427323    -0.19930
F2110       F  0.85956735  0.89661094  0.96413856    -0.19980
F2111       F  0.92028289  0.92900037  0.97305699    -0.20300
F2112       F  0.86337404  0.93253180  0.99216739    -0.22980
loop_ 
_geom_bond_atom_site_label_1 
_geom_bond_atom_site_label_2 
_geom_bond_distance 
_geom_bond_site_symmetry_2 
_ccdc_geom_bond_type 
In1           O3   2.255       .  S
In1           O4   2.223       .  S
In1          O12   2.245       .  S
In1           O6   2.244       .  S
In1           O8   2.282       .  S
In1           O9   2.210       .  S
In1          O10   2.198       .  S
In1          O13   2.258   1_655  S
C2            O8   1.265       .  A
C2           O10   1.254       .  A
C2         C2101   1.476       .  S
O3           C11   1.265       .  A
O4           C11   1.262       .  A
C5           O12   1.256       .  A
C5            O6   1.258       .  A
C5         C2053   1.489       .  S
C7            O9   1.260   1_455  A
C7           O13   1.262       .  A
C7         C2082   1.476       .  S
C11        C2069   1.480       .  S
In14         O16   2.254   1_655  S
In14         O17   2.199   1_655  S
In14         O25   2.176       .  S
In14         O19   2.273       .  S
In14         O21   2.274       .  S
In14         O22   2.201       .  S
In14         O23   2.193       .  S
In14         O26   2.262       .  S
C15          O21   1.270       .  A
C15          O23   1.257       .  A
C15        C2098   1.473       .  S
O16          C24   1.265       .  A
O17          C24   1.261       .  A
C18          O25   1.255       .  A
C18          O19   1.273       .  A
C18        C2002   1.484       .  S
C20          O22   1.263       .  A
C20          O26   1.264       .  A
C20        C2018   1.490       .  S
C24        C2034   1.463       .  S
In27         O29   2.290       .  S
In27         O30   2.183       .  S
In27         O38   2.237       .  S
In27         O32   2.246       .  S
In27         O34   2.272       .  S
In27         O35   2.200       .  S
In27         O36   2.216       .  S
In27         O39   2.264       .  S
C28          O34   1.264       .  A
C28          O36   1.255       .  A
C28        C1989   1.475       .  S
O29          C37   1.264       .  A
O30          C37   1.255       .  A
C31          O38   1.257       .  A
C31          O32   1.257       .  A
C31        C1954   1.486       .  S
C33          O35   1.256   1_545  A
C33          O39   1.265   1_545  A
C33        C1970   1.479       .  S
C37        C2085   1.483       .  S
In40         O42   2.263       .  S
In40         O43   2.175       .  S
In40         O51   2.189       .  S
In40         O45   2.265       .  S
In40         O47   2.275       .  S
In40         O48   2.189       .  S
In40         O49   2.200       .  S
In40         O52   2.264       .  S
C41          O47   1.268       .  A
C41          O49   1.255       .  A
C41        C1986   1.471       .  S
O42          C50   1.263   1_565  A
O43          C50   1.261   1_565  A
C44          O51   1.256       .  A
C44          O45   1.271       .  A
C44        C1922   1.479       .  S
C46          O48   1.259       .  A
C46          O52   1.266       .  A
C46        C2037   1.462       .  S
C50        C1938   1.477       .  S
In53         O55   2.260       .  S
In53         O56   2.189       .  S
In53         O64   2.239       .  S
In53         O58   2.246       .  S
In53         O60   2.289       .  S
In53         O61   2.202       .  S
In53         O62   2.199       .  S
In53         O65   2.258       .  S
C54          O60   1.267       .  A
C54          O62   1.254       .  A
C54        C1909   1.483       .  S
O55          C63   1.265       .  A
O56          C63   1.261       .  A
C57          O64   1.258       .  A
C57          O58   1.258       .  A
C57        C1874   1.488       .  S
C59          O61   1.260       .  A
C59          O65   1.263       .  A
C59        C1890   1.488       .  S
C63        C1973   1.480       .  S
In66         O68   2.257       .  S
In66         O69   2.202       .  S
In66         O77   2.182       .  S
In66         O71   2.295       .  S
In66         O73   2.259       .  S
In66         O74   2.212       .  S
In66         O75   2.257       .  S
In66         O78   2.264       .  S
C67          O73   1.257       .  A
C67          O75   1.259       .  A
C67        C1906   1.479       .  S
O68          C76   1.265       .  A
O69          C76   1.262       .  A
C70          O77   1.250       .  A
C70          O71   1.269       .  A
C70        C1842   1.480       .  S
C72          O74   1.258       .  A
C72          O78   1.265       .  A
C72        C1941   1.490       .  S
C76        C1858   1.474       .  S
In79         O81   2.272       .  S
In79         O82   2.196       .  S
In79         O90   2.253       .  S
In79         O84   2.247       .  S
In79         O86   2.287       .  S
In79         O87   2.200       .  S
In79         O88   2.221       .  S
In79         O91   2.273       .  S
C80          O86   1.263       .  A
C80          O88   1.254       .  A
C80        C1826   1.474       .  S
O81          C89   1.267       .  A
O82          C89   1.254       .  A
C83          O90   1.259       .  A
C83          O84   1.258       .  A
C83        C1810   1.489       .  S
C85          O87   1.257       .  A
C85          O91   1.264       .  A
C85        C2066   1.476       .  S
C89        C1893   1.488       .  S
In92         O94   2.275       .  S
In92         O95   2.222       .  S
In92        O103   2.224       .  S
In92         O97   2.279       .  S
In92         O99   2.281       .  S
In92        O100   2.192       .  S
In92        O101   2.242       .  S
In92        O104   2.276       .  S
C93          O99   1.260       .  A
C93         O101   1.253       .  A
C93        C1829   1.480       .  S
O94         C102   1.264       .  A
O95         C102   1.255       .  A
C96         O103   1.255       .  A
C96          O97   1.261       .  A
C96        C1794   1.490       .  S
C98         O100   1.263       .  A
C98         O104   1.264       .  A
C98        C1861   1.474       .  S
C102       C2021   1.492       .  S
In105       O107   2.244       .  S
In105       O108   2.209       .  S
In105       O116   2.191       .  S
In105       O110   2.282       .  S
In105       O112   2.267       .  S
In105       O113   2.198       .  S
In105       O114   2.232       .  S
In105       O117   2.235       .  S
C106        O112   1.261       .  A
C106        O114   1.255       .  A
C106       C1778   1.484       .  S
O107        C115   1.263       .  A
O108        C115   1.261       .  A
C109        O116   1.252       .  A
C109        O110   1.269       .  A
C109       C1730   1.470       .  S
C111        O113   1.261       .  A
C111        O117   1.265       .  A
C111       C1762   1.477       .  S
C115       C1746   1.470       .  S
In118       O120   2.252       .  S
In118       O121   2.196       .  S
In118       O129   2.190       .  S
In118       O123   2.268       .  S
In118       O125   2.264       .  S
In118       O126   2.201       .  S
In118       O127   2.211       .  S
In118       O130   2.251       .  S
C119        O125   1.267       .  A
C119        O127   1.256       .  A
C119       C1781   1.470       .  S
O120        C128   1.263       .  A
O121        C128   1.262       .  A
C122        O129   1.255       .  A
C122        O123   1.270       .  A
C122       C1682   1.478       .  S
C124        O126   1.260       .  A
C124        O130   1.263       .  A
C124       C1701   1.460       .  S
C128       C1714   1.480       .  S
In131       O133   2.261       .  S
In131       O134   2.187       .  S
In131       O142   2.199       .  S
In131       O136   2.286       .  S
In131       O138   2.257       .  S
In131       O139   2.191       .  S
In131       O140   2.240       .  S
In131       O143   2.251       .  S
C132        O138   1.260       .  A
C132        O140   1.258       .  A
C132       C1666   1.494       .  S
O133        C141   1.265       .  A
O134        C141   1.260       .  A
C135        O142   1.250       .  A
C135        O136   1.268       .  A
C135       C1634   1.481       .  S
C137        O139   1.256       .  A
C137        O143   1.266       .  A
C137       C1650   1.481       .  S
C141       C1765   1.472       .  S
In144       O146   2.257       .  S
In144       O147   2.199       .  S
In144       O155   2.196       .  S
In144       O149   2.285       .  S
In144       O151   2.260       .  S
In144       O152   2.187       .  S
In144       O153   2.243       .  S
In144       O156   2.261       .  S
C145        O151   1.259       .  A
C145        O153   1.259       .  A
C145       C1669   1.497       .  S
O146        C154   1.262       .  A
O147        C154   1.259       .  A
C148        O155   1.253       .  A
C148        O149   1.267       .  A
C148       C1602   1.470       .  S
C150        O152   1.258       .  A
C150        O156   1.267       .  A
C150       C1717   1.472       .  S
C154       C1618   1.484       .  S
In157       O159   2.260       .  S
In157       O160   2.192       .  S
In157       O168   2.210       .  S
In157       O162   2.269       .  S
In157       O164   2.282       .  S
In157       O165   2.199       .  S
In157       O166   2.206       .  S
In157       O169   2.254       .  S
C158        O164   1.263       .  A
C158        O166   1.253       .  A
C158       C1586   1.470       .  S
O159        C167   1.264       .  A
O160        C167   1.259       .  A
C161        O168   1.252       .  A
C161        O162   1.264       .  A
C161       C1554   1.490       .  S
C163        O165   1.257       .  A
C163        O169   1.267       .  A
C163       C1573   1.486       .  S
C167       C1653   1.474       .  S
In170       O172   2.251       .  S
In170       O173   2.210       .  S
In170       O181   2.239       .  S
In170       O175   2.253       .  S
In170       O177   2.300       .  S
In170       O178   2.214       .  S
In170       O179   2.207       .  S
In170       O182   2.247       .  S
C171        O177   1.267       .  A
C171        O179   1.253       .  A
C171       C1589   1.483       .  S
O172        C180   1.264       .  A
O173        C180   1.260       .  A
C174        O181   1.258       .  A
C174        O175   1.258       .  A
C174       C1522   1.491       .  S
C176        O178   1.259       .  A
C176        O182   1.263       .  A
C176       C1621   1.463       .  S
C180       C1538   1.483       .  S
In183       O185   2.259       .  S
In183       O186   2.208       .  S
In183       O194   2.206       .  S
In183       O188   2.282       .  S
In183       O190   2.257       .  S
In183       O191   2.207       .  S
In183       O192   2.244       .  S
In183       O195   2.250       .  S
C184        O190   1.259       .  A
C184        O192   1.256       .  A
C184       C1506   1.493       .  S
O185        C193   1.263       .  A
O186        C193   1.261       .  A
C187        O194   1.253       .  A
C187        O188   1.265       .  A
C187       C1490   1.468       .  S
C189        O191   1.259       .  A
C189        O195   1.264       .  A
C189       C1749   1.472       .  S
C193       C1570   1.484       .  S
In196       O198   2.240       .  S
In196       O199   2.226       .  S
In196       O207   2.183       .  S
In196       O201   2.282       .  S
In196       O203   2.270       .  S
In196       O204   2.216       .  S
In196       O205   2.227       .  S
In196       O208   2.234       .  S
C197        O203   1.260       .  A
C197        O205   1.256       .  A
C197       C1509   1.487       .  S
O198        C206   1.259       .  A
O199        C206   1.261       .  A
C200        O207   1.252       .  A
C200        O201   1.269       .  A
C200       C1474   1.472       .  S
C202        O204   1.262       .  A
C202        O208   1.266       .  A
C202       C1541   1.482       .  S
C206       C1698   1.467       .  S
In209       O211   2.230       .  S
In209       O212   2.217       .  S
In209       O220   2.251       .  S
In209       O214   2.244       .  S
In209       O216   2.287       .  S
In209       O217   2.198       .  S
In209       O218   2.208       .  S
In209       O221   2.255       .  S
C210        O216   1.266       .  A
C210        O218   1.253       .  A
C210       C1458   1.476       .  S
O211        C219   1.264   1_565  A
O212        C219   1.260   1_565  A
C213        O220   1.257       .  A
C213        O214   1.257       .  A
C213       C1410   1.476       .  S
C215        O217   1.259       .  A
C215        O221   1.265       .  A
C215       C1426   1.467       .  S
C219       C1442   1.483       .  S
In222       O224   2.270       .  S
In222       O225   2.208       .  S
In222       O233   2.263       .  S
In222       O227   2.236       .  S
In222       O229   2.287       .  S
In222       O230   2.210       .  S
In222       O231   2.231       .  S
In222       O234   2.263       .  S
C223        O229   1.263       .  A
C223        O231   1.254       .  A
C223       C1461   1.477       .  S
O224        C232   1.266       .  A
O225        C232   1.260       .  A
C226        O233   1.261       .  A
C226        O227   1.254       .  A
C226       C1362   1.486       .  S
C228        O230   1.258   1_545  A
C228        O234   1.263   1_545  A
C228       C1394   1.485       .  S
C232       C1381   1.476       .  S
In235       O237   2.240       .  S
In235       O238   2.190       .  S
In235       O246   2.173       .  S
In235       O240   2.258       .  S
In235       O242   2.271       .  S
In235       O243   2.196       .  S
In235       O244   2.177       .  S
In235       O247   2.266       .  S
C236        O242   1.273       .  A
C236        O244   1.259       .  A
C236       C1346   1.477       .  S
O237        C245   1.266       .  A
O238        C245   1.264       .  A
C239        O246   1.260       .  A
C239        O240   1.274       .  A
C239       C1314   1.475       .  S
C241        O243   1.266       .  A
C241        O247   1.266       .  A
C241       C1378   1.481       .  S
C245       C1330   1.458       .  S
In248       O250   2.250       .  S
In248       O251   2.214       .  S
In248       O259   2.204       .  S
In248       O253   2.266       .  S
In248       O255   2.275       .  S
In248       O256   2.207       .  S
In248       O257   2.183       .  S
In248       O260   2.229       .  S
C249        O255   1.267       .  A
C249        O257   1.256       .  A
C249       C1349   1.478       .  S
O250        C258   1.261       .  A
O251        C258   1.260       .  A
C252        O259   1.255       .  A
C252        O253   1.262       .  A
C252       C1282   1.481       .  S
C254        O256   1.264       .  A
C254        O260   1.264       .  A
C254       C1298   1.482       .  S
C258       C1429   1.474       .  S
In261       O263   2.260       .  S
In261       O264   2.194       .  S
In261       O272   2.194       .  S
In261       O266   2.273       .  S
In261       O268   2.277       .  S
In261       O269   2.196       .  S
In261       O270   2.202       .  S
In261       O273   2.249       .  S
C262        O268   1.268       .  A
C262        O270   1.254       .  A
C262       C1266   1.472       .  S
O263        C271   1.264       .  A
O264        C271   1.261       .  A
C265        O272   1.258       .  A
C265        O266   1.269       .  A
C265       C1234   1.494       .  S
C267        O269   1.260       .  A
C267        O273   1.263       .  A
C267       C1333   1.459       .  S
C271       C1250   1.486       .  S
In274       O276   2.235       .  S
In274       O277   2.228       .  S
In274       O285   2.235       .  S
In274       O279   2.265       .  S
In274       O281   2.276       .  S
In274       O282   2.216       .  S
In274       O283   2.226       .  S
In274       O286   2.245       .  S
C275        O281   1.261       .  A
C275        O283   1.254       .  A
C275       C1269   1.478       .  S
O276        C284   1.262       .  A
O277        C284   1.258       .  A
C278        O285   1.255       .  A
C278        O279   1.259       .  A
C278       C1202   1.477       .  S
C280        O282   1.261       .  A
C280        O286   1.263       .  A
C280       C1221   1.477       .  S
C284       C1301   1.479       .  S
In287       O289   2.268       .  S
In287       O290   2.202       .  S
In287       O298   2.199       .  S
In287       O292   2.292       .  S
In287       O294   2.271       .  S
In287       O295   2.211       .  S
In287       O296   2.238       .  S
In287       O299   2.263   1_655  S
C288        O294   1.261       .  A
C288        O296   1.257       .  A
C288       C1189   1.491       .  S
O289        C297   1.265       .  A
O290        C297   1.261       .  A
C291        O298   1.254       .  A
C291        O292   1.267       .  A
C291       C1170   1.491       .  S
C293        O295   1.258   1_455  A
C293        O299   1.263       .  A
C293       C1253   1.478       .  S
C297       C1397   1.482       .  S
In300       O302   2.249   1_655  S
In300       O303   2.213       .  S
In300       O311   2.204       .  S
In300       O305   2.283       .  S
In300       O307   2.271       .  S
In300       O308   2.201       .  S
In300       O309   2.239       .  S
In300       O312   2.247       .  S
C301        O307   1.261       .  A
C301        O309   1.257       .  A
C301       C1186   1.495       .  S
O302        C310   1.264       .  A
O303        C310   1.257   1_655  A
C304        O311   1.252       .  A
C304        O305   1.267       .  A
C304       C1157   1.472       .  S
C306        O308   1.261       .  A
C306        O312   1.264       .  A
C306       C1445   1.478       .  S
C310       C1218   1.478       .  S
In313       O315   2.255       .  S
In313       O316   2.259       .  S
In313       O324   2.275       .  S
In313       O318   2.284       .  S
In313       O320   2.255       .  S
In313       O321   2.237       .  S
In313       O322   2.273       .  S
In313       O325   2.246       .  S
C314        O320   1.264       .  A
C314        O322   1.261       .  A
C314        C444   1.476       .  S
O315        C323   1.258       .  A
O316        C323   1.258       .  A
C317        O324   1.252       .  A
C317        O318   1.258       .  A
C317        C369   1.476       .  S
C319        O321   1.256       .  A
C319        O325   1.264       .  A
C319       C1685   1.469       .  S
C323        C332   1.464       .  S
In326       O328   2.249       .  S
In326       O329   2.250       .  S
In326       O337   2.281       .  S
In326       O331   2.277       .  S
In326       O333   2.273       .  S
In326       O334   2.263       .  S
In326       O335   2.239       .  S
In326       O338   2.250       .  S
C327        O333   1.262       .  A
C327        O335   1.261       .  A
C327        C457   1.470       .  S
O328        C336   1.262       .  A
O329        C336   1.259       .  A
C330        O337   1.253       .  A
C330        O331   1.255       .  A
C330        C356   1.474       .  S
C332        O334   1.260       .  A
C332        O338   1.256       .  A
C336       C1877   1.483       .  S
In339       O341   2.262       .  S
In339       O342   2.268       .  S
In339       O350   2.268       .  S
In339       O344   2.283       .  S
In339       O346   2.277       .  S
In339       O347   2.245       .  S
In339       O348   2.245       .  S
In339       O351   2.232       .  S
C340        O346   1.265       .  A
C340        O348   1.258       .  A
C340        C470   1.473       .  S
O341        C349   1.256       .  A
O342        C349   1.258       .  A
C343        O350   1.256       .  A
C343        O344   1.261       .  A
C343        C395   1.478       .  S
C345        O347   1.261       .  A
C345        O351   1.262       .  A
C345       C1138   1.472       .  S
C349        C358   1.469       .  S
In352       O354   2.222       .  S
In352       O355   2.258       .  S
In352       O363   2.261   1_655  S
In352       O357   2.282   1_655  S
In352       O359   2.284       .  S
In352       O360   2.265       .  S
In352       O361   2.242       .  S
In352       O364   2.257       .  S
C353        O359   1.264       .  A
C353        O361   1.256       .  A
C353        C483   1.472       .  S
O354        C362   1.260       .  A
O355        C362   1.263       .  A
C356        O363   1.255       .  A
C356        O357   1.260       .  A
C358        O360   1.260       .  A
C358        O364   1.258       .  A
C362       C1173   1.490       .  S
In365       O367   2.264       .  S
In365       O368   2.261       .  S
In365       O376   2.279       .  S
In365       O370   2.262       .  S
In365       O372   2.272       .  S
In365       O373   2.254       .  S
In365       O374   2.250       .  S
In365       O377   2.227       .  S
C366        O372   1.265       .  A
C366        O374   1.260       .  A
C366        C418   1.474       .  S
O367        C375   1.258       .  A
O368        C375   1.258       .  A
C369        O376   1.261       .  A
C369        O370   1.255       .  A
C371        O373   1.260       .  A
C371        O377   1.261       .  A
C371       C1125   1.482       .  S
C375        C384   1.469       .  S
In378       O380   2.233       .  S
In378       O381   2.240       .  S
In378       O389   2.265       .  S
In378       O383   2.283       .  S
In378       O385   2.281       .  S
In378       O386   2.264       .  S
In378       O387   2.244       .  S
In378       O390   2.266       .  S
C379        O385   1.264       .  A
C379        O387   1.255       .  A
C379        C431   1.470       .  S
O380        C388   1.264       .  A
O381        C388   1.261       .  A
C382        O389   1.256       .  A
C382        O383   1.260       .  A
C382        C408   1.477       .  S
C384        O386   1.257       .  A
C384        O390   1.256       .  A
C388       C1317   1.484       .  S
In391       O393   2.248       .  S
In391       O394   2.274       .  S
In391       O402   2.283       .  S
In391       O396   2.283       .  S
In391       O398   2.266       .  S
In391       O399   2.250       .  S
In391       O400   2.249       .  S
In391       O403   2.245       .  S
C392        O398   1.262       .  A
C392        O400   1.263       .  A
C392        C496   1.473       .  S
O393        C401   1.255       .  A
O394        C401   1.260       .  A
C395        O402   1.254       .  A
C395        O396   1.257       .  A
C397        O399   1.259       .  A
C397        O403   1.263       .  A
C397       C1525   1.477       .  S
C401        C410   1.465       .  S
In404       O406   2.236       .  S
In404       O407   2.251       .  S
In404       O415   2.275   1_655  S
In404       O409   2.269   1_655  S
In404       O411   2.275       .  S
In404       O412   2.268       .  S
In404       O413   2.250       .  S
In404       O416   2.252       .  S
C405        O411   1.265       .  A
C405        O413   1.259       .  A
C405        C509   1.474       .  S
O406        C414   1.261       .  A
O407        C414   1.260       .  A
C408        O415   1.258       .  A
C408        O409   1.259       .  A
C410        O412   1.258       .  A
C410        O416   1.256       .  A
C414       C2050   1.474       .  S
In417       O419   2.246       .  S
In417       O420   2.258       .  S
In417       O428   2.279       .  S
In417       O422   2.280       .  S
In417       O424   2.255       .  S
In417       O425   2.252       .  S
In417       O426   2.267       .  S
In417       O429   2.247       .  S
C418        O424   1.263       .  A
C418        O426   1.261       .  A
O419        C427   1.257       .  A
O420        C427   1.259       .  A
C421        O428   1.253       .  A
C421        O422   1.257       .  A
C421        C499   1.476       .  S
C423        O425   1.257       .  A
C423        O429   1.263       .  A
C423       C1605   1.476       .  S
C427        C436   1.461       .  S
In430       O432   2.238       .  S
In430       O433   2.250       .  S
In430       O441   2.279   1_565  S
In430       O435   2.266   1_565  S
In430       O437   2.266       .  S
In430       O438   2.260       .  S
In430       O439   2.239       .  S
In430       O442   2.245       .  S
C431        O437   1.263       .  A
C431        O439   1.263       .  A
O432        C440   1.259       .  A
O433        C440   1.262       .  A
C434        O441   1.257       .  A
C434        O435   1.257       .  A
C434        C460   1.475       .  S
C436        O438   1.258       .  A
C436        O442   1.256       .  A
C440       C1957   1.480       .  S
In443       O445   2.265       .  S
In443       O446   2.256       .  S
In443       O454   2.276       .  S
In443       O448   2.269       .  S
In443       O450   2.284       .  S
In443       O451   2.248       .  S
In443       O452   2.250       .  S
In443       O455   2.236       .  S
C444        O450   1.265       .  A
C444        O452   1.258       .  A
O445        C453   1.258       .  A
O446        C453   1.257       .  A
C447        O454   1.260       .  A
C447        O448   1.257       .  A
C447        C473   1.477       .  S
C449        O451   1.260       .  A
C449        O455   1.262       .  A
C449       C1106   1.478       .  S
C453        C462   1.467       .  S
In456       O458   2.238       .  S
In456       O459   2.239       .  S
In456       O467   2.261       .  S
In456       O461   2.284       .  S
In456       O463   2.280       .  S
In456       O464   2.260       .  S
In456       O465   2.239       .  S
In456       O468   2.264       .  S
C457        O463   1.264       .  A
C457        O465   1.257       .  A
O458        C466   1.263       .  A
O459        C466   1.262       .  A
C460        O467   1.255       .  A
C460        O461   1.260       .  A
C462        O464   1.257       .  A
C462        O468   1.256       .  A
C466       C1237   1.492       .  S
In469       O471   2.247       .  S
In469       O472   2.274       .  S
In469       O480   2.279       .  S
In469       O474   2.282       .  S
In469       O476   2.251       .  S
In469       O477   2.239       .  S
In469       O478   2.269       .  S
In469       O481   2.247       .  S
C470        O476   1.263       .  A
C470        O478   1.261       .  A
O471        C479   1.257       .  A
O472        C479   1.260       .  A
C473        O480   1.254       .  A
C473        O474   1.257       .  A
C475        O477   1.255       .  A
C475        O481   1.265       .  A
C475       C1477   1.480       .  S
C479        C488   1.467       .  S
In482       O484   2.247       .  S
In482       O485   2.249       .  S
In482       O493   2.282       .  S
In482       O487   2.289       .  S
In482       O489   2.272       .  S
In482       O490   2.282       .  S
In482       O491   2.242       .  S
In482       O494   2.247       .  S
C483        O489   1.262       .  A
C483        O491   1.262       .  A
O484        C492   1.261       .  A
O485        C492   1.261       .  A
C486        O493   1.254       .  A
C486        O487   1.257       .  A
C486        C512   1.480       .  S
C488        O490   1.259       .  A
C488        O494   1.254       .  A
C492       C1813   1.477       .  S
In495       O497   2.252       .  S
In495       O498   2.272       .  S
In495       O506   2.281       .  S
In495       O500   2.262       .  S
In495       O502   2.275       .  S
In495       O503   2.253       .  S
In495       O504   2.247       .  S
In495       O507   2.229       .  S
C496        O502   1.265       .  A
C496        O504   1.259       .  A
O497        C505   1.257       .  A
O498        C505   1.260       .  A
C499        O506   1.261       .  A
C499        O500   1.255       .  A
C501        O503   1.259       .  A
C501        O507   1.263       .  A
C501       C1090   1.491       .  S
C505        C514   1.468       .  S
In508       O510   2.241       .  S
In508       O511   2.253       .  S
In508       O519   2.281   1_565  S
In508       O513   2.285   1_565  S
In508       O515   2.266       .  S
In508       O516   2.278       .  S
In508       O517   2.256       .  S
In508       O520   2.252       .  S
C509        O515   1.261       .  A
C509        O517   1.263       .  A
O510        C518   1.261       .  A
O511        C518   1.261       .  A
C512        O519   1.255       .  A
C512        O513   1.258       .  A
C514        O516   1.259       .  A
C514        O520   1.255       .  A
C518       C1365   1.482       .  S
In521       O523   2.236       .  S
In521       O524   2.249       .  S
In521       O532   2.272       .  S
In521       O526   2.273       .  S
In521       O528   2.274       .  S
In521       O529   2.256       .  S
In521       O530   2.247       .  S
In521       O533   2.263       .  S
C522        O528   1.266       .  A
C522        O530   1.259       .  A
C522        C652   1.474       .  S
O523        C531   1.260       .  A
O524        C531   1.258       .  A
C525        O532   1.256       .  A
C525        O526   1.259       .  A
C525        C577   1.476       .  S
C527        O529   1.258       .  A
C527        O533   1.258       .  A
C527        C544   1.466       .  S
C531       C1074   1.466       .  S
In534       O536   2.259       .  S
In534       O537   2.257       .  S
In534       O545   2.280       .  S
In534       O539   2.279       .  S
In534       O541   2.257       .  S
In534       O542   2.254       .  S
In534       O543   2.264       .  S
In534       O546   2.226       .  S
C535        O541   1.258       .  A
C535        O543   1.264       .  A
C535        C665   1.472       .  S
O536        C544   1.258       .  A
O537        C544   1.260       .  A
C538        O545   1.255       .  A
C538        O539   1.258       .  A
C538        C564   1.478       .  S
C540        O542   1.261       .  A
C540        O546   1.260       .  A
C540       C1285   1.477       .  S
In547       O549   2.228       .  S
In547       O550   2.249       .  S
In547       O558   2.271       .  S
In547       O552   2.280       .  S
In547       O554   2.293       .  S
In547       O555   2.262       .  S
In547       O556   2.248       .  S
In547       O559   2.258       .  S
C548        O554   1.265       .  A
C548        O556   1.255       .  A
C548        C704   1.476       .  S
O549        C557   1.263       .  A
O550        C557   1.261       .  A
C551        O558   1.256       .  A
C551        O552   1.259       .  A
C551        C603   1.477       .  S
C553        O555   1.259       .  A
C553        O559   1.259       .  A
C553        C570   1.468       .  S
C557       C1557   1.477       .  S
In560       O562   2.258       .  S
In560       O563   2.270       .  S
In560       O571   2.271   1_655  S
In560       O565   2.288   1_655  S
In560       O567   2.278       .  S
In560       O568   2.243       .  S
In560       O569   2.248       .  S
In560       O572   2.231       .  S
C561        O567   1.263       .  A
C561        O569   1.255       .  A
C561        C717   1.469       .  S
O562        C570   1.255       .  A
O563        C570   1.258       .  A
C564        O571   1.254       .  A
C564        O565   1.259       .  A
C566        O568   1.260       .  A
C566        O572   1.267       .  A
C566       C2005   1.489       .  S
In573       O575   2.244       .  S
In573       O576   2.238       .  S
In573       O584   2.269       .  S
In573       O578   2.283       .  S
In573       O580   2.256       .  S
In573       O581   2.256       .  S
In573       O582   2.251       .  S
In573       O585   2.259       .  S
C574        O580   1.261       .  A
C574        O582   1.264       .  A
C574        C626   1.470       .  S
O575        C583   1.265       .  A
O576        C583   1.255       .  A
C577        O584   1.255       .  A
C577        O578   1.259       .  A
C579        O581   1.258       .  A
C579        O585   1.258       .  A
C579        C596   1.466       .  S
C583       C1733   1.482       .  S
In586       O588   2.256       .  S
In586       O589   2.254       .  S
In586       O597   2.281       .  S
In586       O591   2.273       .  S
In586       O593   2.289       .  S
In586       O594   2.261       .  S
In586       O595   2.250       .  S
In586       O598   2.225       .  S
C587        O593   1.264       .  A
C587        O595   1.255       .  A
C587        C639   1.475       .  S
O588        C596   1.259       .  A
O589        C596   1.260       .  A
C590        O597   1.258       .  A
C590        O591   1.255       .  A
C590        C616   1.477       .  S
C592        O594   1.260       .  A
C592        O598   1.264       .  A
C592       C1845   1.487       .  S
In599       O601   2.234       .  S
In599       O602   2.248       .  S
In599       O610   2.275       .  S
In599       O604   2.281       .  S
In599       O606   2.258       .  S
In599       O607   2.287       .  S
In599       O608   2.255       .  S
In599       O611   2.247       .  S
C600        O606   1.263       .  A
C600        O608   1.260       .  A
C600        C683   1.470       .  S
O601        C609   1.263       .  A
O602        C609   1.261       .  A
C603        O610   1.255       .  A
C603        O604   1.258       .  A
C605        O607   1.260       .  A
C605        O611   1.254       .  A
C605        C622   1.470       .  S
C609       C1058   1.484       .  S
In612       O614   2.250       .  S
In612       O615   2.286       .  S
In612       O623   2.276   1_655  S
In612       O617   2.284   1_655  S
In612       O619   2.264       .  S
In612       O620   2.240       .  S
In612       O621   2.266       .  S
In612       O624   2.246       .  S
C613        O619   1.264       .  A
C613        O621   1.260       .  A
C613        C691   1.476       .  S
O614        C622   1.255       .  A
O615        C622   1.259       .  A
C616        O623   1.254       .  A
C616        O617   1.258       .  A
C618        O620   1.258       .  A
C618        O624   1.265       .  A
C618       C1154   1.480       .  S
In625       O627   2.242       .  S
In625       O628   2.249       .  S
In625       O636   2.271       .  S
In625       O630   2.269       .  S
In625       O632   2.264       .  S
In625       O633   2.262       .  S
In625       O634   2.255       .  S
In625       O637   2.256       .  S
C626        O632   1.262       .  A
C626        O634   1.259       .  A
O627        C635   1.265       .  A
O628        C635   1.260       .  A
C629        O636   1.256       .  A
C629        O630   1.258       .  A
C629        C687   1.472       .  S
C631        O633   1.258       .  A
C631        O637   1.257       .  A
C631        C648   1.464       .  S
C635       C1042   1.487       .  S
In638       O640   2.253       .  S
In638       O641   2.249       .  S
In638       O649   2.273       .  S
In638       O643   2.279       .  S
In638       O645   2.249       .  S
In638       O646   2.232       .  S
In638       O647   2.267       .  S
In638       O650   2.263       .  S
C639        O645   1.265       .  A
C639        O647   1.262       .  A
O640        C648   1.260       .  A
O641        C648   1.260       .  A
C642        O649   1.258       .  A
C642        O643   1.259       .  A
C642        C668   1.479       .  S
C644        O646   1.252       .  A
C644        O650   1.263       .  A
C644       C1205   1.482       .  S
In651       O653   2.243       .  S
In651       O654   2.251       .  S
In651       O662   2.283       .  S
In651       O656   2.292       .  S
In651       O658   2.271       .  S
In651       O659   2.272       .  S
In651       O660   2.261       .  S
In651       O663   2.262       .  S
C652        O658   1.259       .  A
C652        O660   1.262       .  A
O653        C661   1.265       .  A
O654        C661   1.259       .  A
C655        O662   1.254       .  A
C655        O656   1.257       .  A
C655        C707   1.481       .  S
C657        O659   1.260       .  A
C657        O663   1.257       .  A
C657        C674   1.471       .  S
C661       C1637   1.488       .  S
In664       O666   2.259       .  S
In664       O667   2.253       .  S
In664       O675   2.278   1_565  S
In664       O669   2.276   1_565  S
In664       O671   2.268       .  S
In664       O672   2.239       .  S
In664       O673   2.252       .  S
In664       O676   2.247       .  S
C665        O671   1.266       .  A
C665        O673   1.258       .  A
O666        C674   1.262       .  A
O667        C674   1.261       .  A
C668        O675   1.259       .  A
C668        O669   1.257       .  A
C670        O672   1.256       .  A
C670        O676   1.259       .  A
C670       C1925   1.479       .  S
In677       O679   2.268       .  S
In677       O680   2.274       .  S
In677       O688   2.244       .  S
In677       O682   2.245       .  S
In677       O684   2.270       .  S
In677       O685   2.255       .  S
In677       O686   2.240       .  S
In677       O689   2.255       .  S
C678        O684   1.259       .  A
C678        O686   1.254       .  A
C678        C700   1.460       .  S
O679        C687   1.255       .  A
O680        C687   1.257       .  A
C681        O688   1.263       .  A
C681        O682   1.260       .  A
C681       C1493   1.474       .  S
C683        O685   1.263       .  A
C683        O689   1.261       .  A
In690       O692   2.241       .  S
In690       O693   2.265       .  S
In690       O701   2.282       .  S
In690       O695   2.271       .  S
In690       O697   2.259       .  S
In690       O698   2.262       .  S
In690       O699   2.271       .  S
In690       O702   2.242       .  S
C691        O697   1.260       .  A
C691        O699   1.264       .  A
O692        C700   1.256       .  A
O693        C700   1.259       .  A
C694        O701   1.259       .  A
C694        O695   1.257       .  A
C694        C720   1.479       .  S
C696        O698   1.260       .  A
C696        O702   1.260       .  A
C696       C1797   1.480       .  S
In703       O705   2.243       .  S
In703       O706   2.254       .  S
In703       O714   2.284       .  S
In703       O708   2.289       .  S
In703       O710   2.278       .  S
In703       O711   2.288       .  S
In703       O712   2.258       .  S
In703       O715   2.247       .  S
C704        O710   1.259       .  A
C704        O712   1.262       .  A
O705        C713   1.261       .  A
O706        C713   1.262       .  A
C707        O714   1.254       .  A
C707        O708   1.257       .  A
C709        O711   1.261       .  A
C709        O715   1.256       .  A
C709        C726   1.471       .  S
C713       C1026   1.488       .  S
In716       O718   2.246       .  S
In716       O719   2.286       .  S
In716       O727   2.276   1_565  S
In716       O721   2.288   1_565  S
In716       O723   2.242       .  S
In716       O724   2.226       .  S
In716       O725   2.268       .  S
In716       O728   2.255       .  S
C717        O723   1.262       .  A
C717        O725   1.261       .  A
O718        C726   1.255       .  A
O719        C726   1.261       .  A
C720        O727   1.255       .  A
C720        O721   1.257       .  A
C722        O724   1.255       .  A
C722        O728   1.266       .  A
C722       C1413   1.477       .  S
In729       O731   2.275       .  S
In729       O732   2.170       .  S
In729       O740   2.243       .  S
In729       O734   2.264       .  S
In729       O736   2.287       .  S
In729       O737   2.211       .  S
In729       O738   2.228       .  S
In729       O741   2.277       .  S
C730        O736   1.264       .  A
C730        O738   1.252       .  A
C730       C1010   1.480       .  S
O731        C739   1.267       .  A
O732        C739   1.261       .  A
C733        O740   1.255       .  A
C733        O734   1.259       .  A
C733       C1045   1.483       .  S
C735        O737   1.256       .  A
C735        O741   1.262       .  A
C735        C978   1.485       .  S
C739        C994   1.475       .  S
In742       O744   2.257       .  S
In742       O745   2.198       .  S
In742       O753   2.213       .  S
In742       O747   2.271       .  S
In742       O749   2.276       .  S
In742       O750   2.207       .  S
In742       O751   2.231       .  S
In742       O754   2.244       .  S
C743        O749   1.261       .  A
C743        O751   1.254       .  A
C743       C1013   1.482       .  S
O744        C752   1.265       .  A
O745        C752   1.257       .  A
C746        O753   1.252       .  A
C746        O747   1.264       .  A
C746       C1109   1.487       .  S
C748        O750   1.262       .  A
C748        O754   1.262       .  A
C748        C962   1.484       .  S
C752        C949   1.472       .  S
In755       O757   2.281       .  S
In755       O758   2.190       .  S
In755       O766   2.208       .  S
In755       O760   2.269       .  S
In755       O762   2.285       .  S
In755       O763   2.205       .  S
In755       O764   2.185       .  S
In755       O767   2.262       .  S
C756        O762   1.268       .  A
C756        O764   1.255       .  A
C756        C933   1.486       .  S
O757        C765   1.267       .  A
O758        C765   1.255       .  A
C759        O766   1.254       .  A
C759        O760   1.264       .  A
C759       C1077   1.465       .  S
C761        O763   1.256       .  A
C761        O767   1.261       .  A
C761        C997   1.476       .  S
C765        C914   1.484       .  S
In768       O770   2.235       .  S
In768       O771   2.215       .  S
In768       O779   2.237       .  S
In768       O773   2.250       .  S
In768       O775   2.294       .  S
In768       O776   2.191       .  S
In768       O777   2.176       .  S
In768       O780   2.265       .  S
C769        O775   1.269       .  A
C769        O777   1.250       .  A
C769        C930   1.475       .  S
O770        C778   1.263       .  A
O771        C778   1.260       .  A
C772        O779   1.258       .  A
C772        O773   1.256       .  A
C772       C1122   1.466       .  S
C774        O776   1.261       .  A
C774        O780   1.267       .  A
C774        C901   1.474       .  S
C778        C965   1.474       .  S
In781       O783   2.279       .  S
In781       O784   2.198       .  S
In781       O792   2.259       .  S
In781       O786   2.236       .  S
In781       O788   2.293       .  S
In781       O789   2.202       .  S
In781       O790   2.206       .  S
In781       O793   2.271       .  S
C782        O788   1.264       .  A
C782        O790   1.252       .  A
C782        C885   1.474       .  S
O783        C791   1.266       .  A
O784        C791   1.256       .  A
C785        O792   1.259       .  A
C785        O786   1.256       .  A
C785       C1093   1.473       .  S
C787        O789   1.258       .  A
C787        O793   1.263       .  A
C787        C866   1.489       .  S
C791        C898   1.476       .  S
In794       O796   2.261       .  S
In794       O797   2.210       .  S
In794       O805   2.247       .  S
In794       O799   2.244       .  S
In794       O801   2.291       .  S
In794       O802   2.206       .  S
In794       O803   2.223       .  S
In794       O806   2.276       .  S
C795        O801   1.264       .  A
C795        O803   1.253       .  A
C795        C882   1.485       .  S
O796        C804   1.267       .  A
O797        C804   1.260       .  A
C798        O805   1.261       .  A
C798        O799   1.257       .  A
C798       C1029   1.486       .  S
C800        O802   1.258       .  A
C800        O806   1.261       .  A
C800        C917   1.479       .  S
C804        C850   1.482       .  S
In807       O809   2.253       .  S
In807       O810   2.212       .  S
In807       O818   2.192       .  S
In807       O812   2.291       .  S
In807       O814   2.261       .  S
In807       O815   2.201       .  S
In807       O816   2.251       .  S
In807       O819   2.255       .  S
C808        O814   1.260       .  A
C808        O816   1.257       .  A
C808        C837   1.485       .  S
O809        C817   1.264       .  A
O810        C817   1.259       .  A
C811        O818   1.253       .  A
C811        O812   1.268       .  A
C811       C1061   1.479       .  S
C813        O815   1.262       .  A
C813        O819   1.265       .  A
C813        C853   1.479       .  S
C817        C981   1.482       .  S
In820       O822   2.266       .  S
In820       O823   2.206       .  S
In820       O831   2.238       .  S
In820       O825   2.243       .  S
In820       O827   2.294       .  S
In820       O828   2.202       .  S
In820       O829   2.215       .  S
In820       O832   2.254       .  S
C821        O827   1.264       .  A
C821        O829   1.255       .  A
C821        C834   1.484       .  S
O822        C830   1.265       .  A
O823        C830   1.256       .  A
C824        O831   1.259       .  A
C824        O825   1.256       .  A
C824       C1141   1.490       .  S
C826        O828   1.260       .  A
C826        O832   1.264       .  A
C826        C946   1.475       .  S
C830        C869   1.478       .  S
C833        C834   1.402       .  A
C833        C838   1.405       .  A
C833        H840   1.083       .  S
C834        C835   1.415       .  A
C835        C836   1.413       .  A
C835        C842   1.515       .  S
C836        C837   1.407       .  A
C836        H841   1.083       .  S
C837        C838   1.421       .  A
C838        C839   1.521       .  S
C839        F843   1.385       .  S
C839        F844   1.383       .  S
C839        F845   1.382       .  S
C842        F846   1.384       .  S
C842        F847   1.383       .  S
C842        F848   1.384       .  S
C849        C850   1.407       .  A
C849        C854   1.412       .  A
C849        H856   1.083       .  S
C850        C851   1.420       .  A
C851        C852   1.398       .  A
C851        C858   1.520       .  S
C852        C853   1.400       .  A
C852        H857   1.083       .  S
C853        C854   1.417       .  A
C854        C855   1.517       .  S
C855        F859   1.384       .  S
C855        F860   1.383       .  S
C855        F861   1.383       .  S
C858        F862   1.382       .  S
C858        F863   1.384       .  S
C858        F864   1.385       .  S
C865        C866   1.405       .  A
C865        C870   1.397       .  A
C865        H872   1.078       .  S
C866        C867   1.421       .  A
C867        C868   1.412       .  A
C867        C874   1.518       .  S
C868        C869   1.405       .  A
C868        H873   1.083       .  S
C869        C870   1.418       .  A
C870        C871   1.525       .  S
C871        F875   1.385       .  S
C871        F876   1.383       .  S
C871        F877   1.383       .  S
C874        F878   1.382       .  S
C874        F879   1.383       .  S
C874        F880   1.385       .  S
C881        C882   1.405       .  A
C881        C886   1.403       .  A
C881        H888   1.083       .  S
C882        C883   1.420       .  A
C883        C884   1.413       .  A
C883        C890   1.516       .  S
C884        C885   1.401       .  A
C884        H889   1.083       .  S
C885        C886   1.414       .  A
C886        C887   1.521       .  S
C887        F891   1.383       .  S
C887        F892   1.383       .  S
C887        F893   1.382       .  S
C890        F894   1.382       .  S
C890        F895   1.383       .  S
C890        F896   1.384       .  S
C897        C898   1.406       .  A
C897        C902   1.415       .  A
C897        H904   1.083       .  S
C898        C899   1.418       .  A
C899        C900   1.394       .  A
C899        C906   1.521       .  S
C900        C901   1.398       .  A
C900        H905   1.084       .  S
C901        C902   1.415       .  A
C902        C903   1.515       .  S
C903        F907   1.384       .  S
C903        F908   1.383       .  S
C903        F909   1.383       .  S
C906        F910   1.384       .  S
C906        F911   1.381       .  S
C906        F912   1.385       .  S
C913        C914   1.407       .  A
C913        C918   1.415       .  A
C913        H920   1.083       .  S
C914        C915   1.423       .  A
C915        C916   1.392       .  A
C915        C922   1.518       .  S
C916        C917   1.396       .  A
C916        H921   1.080       .  S
C917        C918   1.416       .  A
C918        C919   1.515       .  S
C919        F923   1.384       .  S
C919        F924   1.381       .  S
C919        F925   1.384       .  S
C922        F926   1.381       .  S
C922        F927   1.384       .  S
C922        F928   1.385       .  S
C929        C930   1.401       .  A
C929        C934   1.413       .  A
C929        H936   1.083       .  S
C930        C931   1.419       .  A
C931        C932   1.397       .  A
C931        C938   1.523       .  S
C932        C933   1.403       .  A
C932        H937   1.083       .  S
C933        C934   1.416       .  A
C934        C935   1.507       .  S
C935        F939   1.382       .  S
C935        F940   1.383       .  S
C935        F941   1.383       .  S
C938        F942   1.383       .  S
C938        F943   1.382       .  S
C938        F944   1.385       .  S
C945        C946   1.402       .  A
C945        C950   1.398       .  A
C945        H952   1.084       .  S
C946        C947   1.417       .  A
C947        C948   1.408       .  A
C947        C954   1.517       .  S
C948        C949   1.403       .  A
C948        H953   1.083       .  S
C949        C950   1.418       .  A
C950        C951   1.522       .  S
C951        F955   1.385       .  S
C951        F956   1.383       .  S
C951        F957   1.384       .  S
C954        F958   1.383       .  S
C954        F959   1.383       .  S
C954        F960   1.384       .  S
C961        C962   1.406       .  A
C961        C966   1.399       .  A
C961        H968   1.082       .  S
C962        C963   1.421       .  A
C963        C964   1.407       .  A
C963        C970   1.520       .  S
C964        C965   1.403       .  A
C964        H969   1.083       .  S
C965        C966   1.417       .  A
C966        C967   1.524       .  S
C967        F971   1.385       .  S
C967        F972   1.383       .  S
C967        F973   1.383       .  S
C970        F974   1.383       .  S
C970        F975   1.383       .  S
C970        F976   1.385       .  S
C977        C978   1.405       .  A
C977        C982   1.400       .  A
C977        H984   1.082       .  S
C978        C979   1.418       .  A
C979        C980   1.410       .  A
C979        C986   1.518       .  S
C980        C981   1.407       .  A
C980        H985   1.083       .  S
C981        C982   1.420       .  A
C982        C983   1.524       .  S
C983        F987   1.385       .  S
C983        F988   1.383       .  S
C983        F989   1.384       .  S
C986        F990   1.382       .  S
C986        F991   1.384       .  S
C986        F992   1.385       .  S
C993        C994   1.398       .  A
C993        C998   1.390       .  A
C993       H1000   1.083       .  S
C994        C995   1.416       .  A
C995        C996   1.413       .  A
C995       C1002   1.514       .  S
C996        C997   1.407       .  A
C996       H1001   1.083       .  S
C997        C998   1.418       .  A
C998        C999   1.518       .  S
C999       F1003   1.385       .  S
C999       F1004   1.381       .  S
C999       F1005   1.384       .  S
C1002      F1006   1.380       .  S
C1002      F1007   1.383       .  S
C1002      F1008   1.385       .  S
C1009      C1010   1.404       .  A
C1009      C1014   1.410       .  A
C1009      H1016   1.083       .  S
C1010      C1011   1.417       .  A
C1011      C1012   1.408       .  A
C1011      C1018   1.519       .  S
C1012      C1013   1.404       .  A
C1012      H1017   1.083       .  S
C1013      C1014   1.418       .  A
C1014      C1015   1.521       .  S
C1015      F1019   1.384       .  S
C1015      F1020   1.380       .  S
C1015      F1021   1.383       .  S
C1018      F1022   1.382       .  S
C1018      F1023   1.383       .  S
C1018      F1024   1.385       .  S
C1025      C1026   1.407       .  A
C1025      C1030   1.410       .  A
C1025      H1032   1.083       .  S
C1026      C1027   1.420       .  A
C1027      C1028   1.407       .  A
C1027      C1034   1.521       .  S
C1028      C1029   1.405       .  A
C1028      H1033   1.083       .  S
C1029      C1030   1.417       .  A
C1030      C1031   1.517       .  S
C1031      F1035   1.384       .  S
C1031      F1036   1.382       .  S
C1031      F1037   1.384       .  S
C1034      F1038   1.383       .  S
C1034      F1039   1.384       .  S
C1034      F1040   1.385       .  S
C1041      C1042   1.401       .  A
C1041      C1046   1.404       .  A
C1041      H1048   1.083       .  S
C1042      C1043   1.421       .  A
C1043      C1044   1.411       .  A
C1043      C1050   1.518       .  S
C1044      C1045   1.404       .  A
C1044      H1049   1.083       .  S
C1045      C1046   1.420       .  A
C1046      C1047   1.518       .  S
C1047      F1051   1.385       .  S
C1047      F1052   1.382       .  S
C1047      F1053   1.381       .  S
C1050      F1054   1.383       .  S
C1050      F1055   1.383       .  S
C1050      F1056   1.385       .  S
C1057      C1058   1.410       .  A
C1057      C1062   1.411       .  A
C1057      H1064   1.083       .  S
C1058      C1059   1.418       .  A
C1059      C1060   1.402       .  A
C1059      C1066   1.522       .  S
C1060      C1061   1.404       .  A
C1060      H1065   1.083       .  S
C1061      C1062   1.412       .  A
C1062      C1063   1.515       .  S
C1063      F1067   1.384       .  S
C1063      F1068   1.382       .  S
C1063      F1069   1.383       .  S
C1066      F1070   1.384       .  S
C1066      F1071   1.383       .  S
C1066      F1072   1.385       .  S
C1073      C1074   1.398       .  A
C1073      C1078   1.404       .  A
C1073      H1080   1.083       .  S
C1074      C1075   1.413       .  A
C1075      C1076   1.405       .  A
C1075      C1082   1.516       .  S
C1076      C1077   1.401       .  A
C1076      H1081   1.083       .  S
C1077      C1078   1.416       .  A
C1078      C1079   1.518       .  S
C1079      F1083   1.384       .  S
C1079      F1084   1.383       .  S
C1079      F1085   1.383       .  S
C1082      F1086   1.382       .  S
C1082      F1087   1.383       .  S
C1082      F1088   1.384       .  S
C1089      C1090   1.404       .  A
C1089      C1094   1.399       .  A
C1089      H1096   1.082       .  S
C1090      C1091   1.427       .  A
C1091      C1092   1.414       .  A
C1091      C1098   1.519       .  S
C1092      C1093   1.400       .  A
C1092      H1097   1.083       .  S
C1093      C1094   1.416       .  A
C1094      C1095   1.523       .  S
C1095      F1099   1.385       .  S
C1095      F1100   1.383       .  S
C1095      F1101   1.381       .  S
C1098      F1102   1.383       .  S
C1098      F1103   1.383       .  S
C1098      F1104   1.384       .  S
C1105      C1106   1.399       .  A
C1105      C1110   1.404       .  A
C1105      H1112   1.083       .  S
C1106      C1107   1.415       .  A
C1107      C1108   1.409       .  A
C1107      C1114   1.518       .  S
C1108      C1109   1.408       .  A
C1108      H1113   1.082       .  S
C1109      C1110   1.425       .  A
C1110      C1111   1.523       .  S
C1111      F1115   1.385       .  S
C1111      F1116   1.383       .  S
C1111      F1117   1.383       .  S
C1114      F1118   1.384       .  S
C1114      F1119   1.382       .  S
C1114      F1120   1.384       .  S
C1121      C1122   1.399       .  A
C1121      C1126   1.399       .  A
C1121      H1128   1.085       .  S
C1122      C1123   1.407       .  A
C1123      C1124   1.412       .  A
C1123      C1130   1.514       .  S
C1124      C1125   1.412       .  A
C1124      H1129   1.083       .  S
C1125      C1126   1.419       .  A
C1126      C1127   1.521       .  S
C1127      F1131   1.385       .  S
C1127      F1132   1.382       .  S
C1127      F1133   1.384       .  S
C1130      F1134   1.379       .  S
C1130      F1135   1.383       .  S
C1130      F1136   1.384       .  S
C1137      C1138   1.399       .  A
C1137      C1142   1.409       .  A
C1137      H1144   1.083       .  S
C1138      C1139   1.412       .  A
C1139      C1140   1.403       .  A
C1139      C1146   1.520       .  S
C1140      C1141   1.409       .  A
C1140      H1145   1.082       .  S
C1141      C1142   1.426       .  A
C1142      C1143   1.520       .  S
C1143      F1147   1.385       .  S
C1143      F1148   1.383       .  S
C1143      F1149   1.384       .  S
C1146      F1150   1.384       .  S
C1146      F1151   1.382       .  S
C1146      F1152   1.385       .  S
C1153      C1154   1.401       .  A
C1153      C1158   1.403       .  A
C1153      H1160   1.083       .  S
C1154      C1155   1.421       .  A
C1155      C1156   1.410       .  A
C1155      C1162   1.518       .  S
C1156      C1157   1.400       .  A
C1156      H1161   1.083       .  S
C1157      C1158   1.417       .  A
C1158      C1159   1.521       .  S
C1159      F1163   1.385       .  S
C1159      F1164   1.382       .  S
C1159      F1165   1.383       .  S
C1162      F1166   1.384       .  S
C1162      F1167   1.383       .  S
C1162      F1168   1.384       .  S
C1169      C1170   1.407       .  A
C1169      C1174   1.402       .  A
C1169      H1176   1.082       .  S
C1170      C1171   1.416       .  A
C1171      C1172   1.413       .  A
C1171      C1178   1.515       .  S
C1172      C1173   1.410       .  A
C1172      H1177   1.083       .  S
C1173      C1174   1.420       .  A
C1174      C1175   1.523       .  S
C1175      F1179   1.385   1_655  S
C1175      F1180   1.384   1_655  S
C1175      F1181   1.383       .  S
C1178      F1182   1.382       .  S
C1178      F1183   1.383       .  S
C1178      F1184   1.383       .  S
C1185      C1186   1.407       .  A
C1185      C1190   1.409       .  A
C1185      H1192   1.083       .  S
C1186      C1187   1.421       .  A
C1187      C1188   1.410       .  A
C1187      C1194   1.518       .  S
C1188      C1189   1.405       .  A
C1188      H1193   1.083       .  S
C1189      C1190   1.421       .  A
C1190      C1191   1.520       .  S
C1191      F1195   1.385       .  S
C1191      F1196   1.384       .  S
C1191      F1197   1.383       .  S
C1194      F1198   1.384       .  S
C1194      F1199   1.383       .  S
C1194      F1200   1.385       .  S
C1201      C1202   1.401       .  A
C1201      C1206   1.407       .  A
C1201      H1208   1.082       .  S
C1202      C1203   1.419       .  A
C1203      C1204   1.404       .  A
C1203      C1210   1.519       .  S
C1204      C1205   1.401       .  A
C1204      H1209   1.083       .  S
C1205      C1206   1.422       .  A
C1206      C1207   1.521       .  S
C1207      F1211   1.384       .  S
C1207      F1212   1.382       .  S
C1207      F1213   1.383       .  S
C1210      F1214   1.382       .  S
C1210      F1215   1.381       .  S
C1210      F1216   1.385       .  S
C1217      C1218   1.405       .  A
C1217      C1222   1.407       .  A
C1217      H1224   1.083       .  S
C1218      C1219   1.418       .  A
C1219      C1220   1.402       .  A
C1219      C1226   1.520       .  S
C1220      C1221   1.403       .  A
C1220      H1225   1.083       .  S
C1221      C1222   1.418       .  A
C1222      C1223   1.520       .  S
C1223      F1227   1.385       .  S
C1223      F1228   1.383       .  S
C1223      F1229   1.384       .  S
C1226      F1230   1.384       .  S
C1226      F1231   1.383       .  S
C1226      F1232   1.385       .  S
C1233      C1234   1.409       .  A
C1233      C1238   1.404       .  A
C1233      H1240   1.081       .  S
C1234      C1235   1.418       .  A
C1235      C1236   1.411       .  A
C1235      C1242   1.517       .  S
C1236      C1237   1.410       .  A
C1236      H1241   1.082       .  S
C1237      C1238   1.420       .  A
C1238      C1239   1.523       .  S
C1239      F1243   1.385       .  S
C1239      F1244   1.384       .  S
C1239      F1245   1.383       .  S
C1242      F1246   1.383       .  S
C1242      F1247   1.382       .  S
C1242      F1248   1.383       .  S
C1249      C1250   1.404       .  A
C1249      C1254   1.396       .  A
C1249      H1256   1.082       .  S
C1250      C1251   1.421       .  A
C1251      C1252   1.412       .  A
C1251      C1258   1.517       .  S
C1252      C1253   1.404       .  A
C1252      H1257   1.083       .  S
C1253      C1254   1.417       .  A
C1254      C1255   1.521       .  S
C1255      F1259   1.385       .  S
C1255      F1260   1.384       .  S
C1255      F1261   1.382       .  S
C1258      F1262   1.383       .  S
C1258      F1263   1.383       .  S
C1258      F1264   1.385       .  S
C1265      C1266   1.400       .  A
C1265      C1270   1.408       .  A
C1265      H1272   1.083       .  S
C1266      C1267   1.413       .  A
C1267      C1268   1.406       .  A
C1267      C1274   1.517       .  S
C1268      C1269   1.404       .  A
C1268      H1273   1.083       .  S
C1269      C1270   1.419       .  A
C1270      C1271   1.518       .  S
C1271      F1275   1.385       .  S
C1271      F1276   1.383       .  S
C1271      F1277   1.382       .  S
C1274      F1278   1.383       .  S
C1274      F1279   1.383       .  S
C1274      F1280   1.384       .  S
C1281      C1282   1.404       .  A
C1281      C1286   1.401       .  A
C1281      H1288   1.083       .  S
C1282      C1283   1.420       .  A
C1283      C1284   1.408       .  A
C1283      C1290   1.518       .  S
C1284      C1285   1.403       .  A
C1284      H1289   1.083       .  S
C1285      C1286   1.417       .  A
C1286      C1287   1.521       .  S
C1287      F1291   1.385       .  S
C1287      F1292   1.384       .  S
C1287      F1293   1.383       .  S
C1290      F1294   1.383       .  S
C1290      F1295   1.383       .  S
C1290      F1296   1.385       .  S
C1297      C1298   1.405   1_545  A
C1297      C1302   1.402       .  A
C1297      H1304   1.082   1_545  S
C1298      C1299   1.420       .  A
C1299      C1300   1.405   1_565  A
C1299      C1306   1.520       .  S
C1300      C1301   1.405       .  A
C1300      H1305   1.083       .  S
C1301      C1302   1.419       .  A
C1302      C1303   1.522       .  S
C1303      F1307   1.385       .  S
C1303      F1308   1.383       .  S
C1303      F1309   1.383       .  S
C1306      F1310   1.383       .  S
C1306      F1311   1.384       .  S
C1306      F1312   1.385       .  S
C1313      C1314   1.404       .  A
C1313      C1318   1.401       .  A
C1313      H1320   1.084       .  S
C1314      C1315   1.411       .  A
C1315      C1316   1.410       .  A
C1315      C1322   1.518       .  S
C1316      C1317   1.412       .  A
C1316      H1321   1.083       .  S
C1317      C1318   1.418       .  A
C1318      C1319   1.522       .  S
C1319      F1323   1.385       .  S
C1319      F1324   1.383       .  S
C1319      F1325   1.384       .  S
C1322      F1326   1.379       .  S
C1322      F1327   1.383       .  S
C1322      F1328   1.385       .  S
C1329      C1330   1.400       .  A
C1329      C1334   1.403   1_565  A
C1329      H1336   1.084       .  S
C1330      C1331   1.411       .  A
C1331      C1332   1.401   1_565  A
C1331      C1338   1.517       .  S
C1332      C1333   1.400       .  A
C1332      H1337   1.084       .  S
C1333      C1334   1.414       .  A
C1334      C1335   1.518       .  S
C1335      F1339   1.385       .  S
C1335      F1340   1.383       .  S
C1335      F1341   1.382       .  S
C1338      F1342   1.383       .  S
C1338      F1343   1.383       .  S
C1338      F1344   1.384       .  S
C1345      C1346   1.407       .  A
C1345      C1350   1.416       .  A
C1345      H1352   1.083       .  S
C1346      C1347   1.417       .  A
C1347      C1348   1.393       .  A
C1347      C1354   1.518       .  S
C1348      C1349   1.398       .  A
C1348      H1353   1.080       .  S
C1349      C1350   1.416       .  A
C1350      C1351   1.517       .  S
C1351      F1355   1.384       .  S
C1351      F1356   1.379       .  S
C1351      F1357   1.383       .  S
C1354      F1358   1.374       .  S
C1354      F1359   1.383       .  S
C1354      F1360   1.385       .  S
C1361      C1362   1.405       .  A
C1361      C1366   1.407       .  A
C1361      H1368   1.083       .  S
C1362      C1363   1.420       .  A
C1363      C1364   1.408       .  A
C1363      C1370   1.518       .  S
C1364      C1365   1.403       .  A
C1364      H1369   1.083       .  S
C1365      C1366   1.418       .  A
C1366      C1367   1.520       .  S
C1367      F1371   1.385       .  S
C1367      F1372   1.382       .  S
C1367      F1373   1.384       .  S
C1370      F1374   1.383   1_565  S
C1370      F1375   1.384       .  S
C1370      F1376   1.384       .  S
C1377      C1378   1.400       .  A
C1377      C1382   1.394   1_455  A
C1377      H1384   1.085       .  S
C1378      C1379   1.420       .  A
C1379      C1380   1.413   1_455  A
C1379      C1386   1.514       .  S
C1380      C1381   1.404       .  A
C1380      H1385   1.083       .  S
C1381      C1382   1.414       .  A
C1382      C1383   1.516       .  S
C1383      F1387   1.384   1_655  S
C1383      F1388   1.380       .  S
C1383      F1389   1.383       .  S
C1386      F1390   1.374       .  S
C1386      F1391   1.383       .  S
C1386      F1392   1.385       .  S
C1393      C1394   1.409       .  A
C1393      C1398   1.413       .  A
C1393      H1400   1.083       .  S
C1394      C1395   1.421       .  A
C1395      C1396   1.397       .  A
C1395      C1402   1.521       .  S
C1396      C1397   1.400       .  A
C1396      H1401   1.079       .  S
C1397      C1398   1.416       .  A
C1398      C1399   1.516       .  S
C1399      F1403   1.384       .  S
C1399      F1404   1.383       .  S
C1399      F1405   1.383       .  S
C1402      F1406   1.381       .  S
C1402      F1407   1.383       .  S
C1402      F1408   1.384       .  S
C1409      C1410   1.400       .  A
C1409      C1414   1.408       .  A
C1409      H1416   1.083       .  S
C1410      C1411   1.423       .  A
C1411      C1412   1.403       .  A
C1411      C1418   1.520   1_565  S
C1412      C1413   1.397       .  A
C1412      H1417   1.083   1_565  S
C1413      C1414   1.420       .  A
C1414      C1415   1.517       .  S
C1415      F1419   1.383       .  S
C1415      F1420   1.380       .  S
C1415      F1421   1.383       .  S
C1418      F1422   1.382       .  S
C1418      F1423   1.382   1_545  S
C1418      F1424   1.385       .  S
C1425      C1426   1.400       .  A
C1425      C1430   1.406   1_655  A
C1425      H1432   1.083       .  S
C1426      C1427   1.414       .  A
C1427      C1428   1.399   1_655  A
C1427      C1434   1.519       .  S
C1428      C1429   1.401       .  A
C1428      H1433   1.084       .  S
C1429      C1430   1.419       .  A
C1430      C1431   1.516       .  S
C1431      F1435   1.385       .  S
C1431      F1436   1.383       .  S
C1431      F1437   1.380       .  S
C1434      F1438   1.384       .  S
C1434      F1439   1.382       .  S
C1434      F1440   1.385       .  S
C1441      C1442   1.408       .  A
C1441      C1446   1.406       .  A
C1441      H1448   1.082       .  S
C1442      C1443   1.422       .  A
C1443      C1444   1.401       .  A
C1443      C1450   1.523       .  S
C1444      C1445   1.403       .  A
C1444      H1449   1.083       .  S
C1445      C1446   1.415       .  A
C1446      C1447   1.519       .  S
C1447      F1451   1.385       .  S
C1447      F1452   1.383       .  S
C1447      F1453   1.383       .  S
C1450      F1454   1.383       .  S
C1450      F1455   1.383       .  S
C1450      F1456   1.385   1_655  S
C1457      C1458   1.400       .  A
C1457      C1462   1.403       .  A
C1457      H1464   1.084       .  S
C1458      C1459   1.414       .  A
C1459      C1460   1.415       .  A
C1459      C1466   1.515       .  S
C1460      C1461   1.405       .  A
C1460      H1465   1.083       .  S
C1461      C1462   1.416       .  A
C1462      C1463   1.520       .  S
C1463      F1467   1.385   1_565  S
C1463      F1468   1.382       .  S
C1463      F1469   1.383       .  S
C1466      F1470   1.382       .  S
C1466      F1471   1.383       .  S
C1466      F1472   1.382       .  S
C1473      C1474   1.400       .  A
C1473      C1478   1.410       .  A
C1473      H1480   1.083       .  S
C1474      C1475   1.418       .  A
C1475      C1476   1.399       .  A
C1475      C1482   1.521       .  S
C1476      C1477   1.400       .  A
C1476      H1481   1.084       .  S
C1477      C1478   1.423       .  A
C1478      C1479   1.519       .  S
C1479      F1483   1.385       .  S
C1479      F1484   1.383       .  S
C1479      F1485   1.380       .  S
C1482      F1486   1.382       .  S
C1482      F1487   1.384       .  S
C1482      F1488   1.385       .  S
C1489      C1490   1.401       .  A
C1489      C1494   1.408       .  A
C1489      H1496   1.083       .  S
C1490      C1491   1.413       .  A
C1491      C1492   1.406       .  A
C1491      C1498   1.518       .  S
C1492      C1493   1.403       .  A
C1492      H1497   1.083       .  S
C1493      C1494   1.416       .  A
C1494      C1495   1.518       .  S
C1495      F1499   1.384       .  S
C1495      F1500   1.382       .  S
C1495      F1501   1.384       .  S
C1498      F1502   1.383       .  S
C1498      F1503   1.383       .  S
C1498      F1504   1.384       .  S
C1505      C1506   1.408       .  A
C1505      C1510   1.410   1_556  A
C1505      H1512   1.082       .  S
C1506      C1507   1.422       .  A
C1507      C1508   1.407   1_556  A
C1507      C1514   1.519       .  S
C1508      C1509   1.404       .  A
C1508      H1513   1.083       .  S
C1509      C1510   1.420       .  A
C1510      C1511   1.523       .  S
C1511      F1515   1.384       .  S
C1511      F1516   1.384       .  S
C1511      F1517   1.380       .  S
C1514      F1518   1.383       .  S
C1514      F1519   1.377       .  S
C1514      F1520   1.385       .  S
C1521      C1522   1.409       .  A
C1521      C1526   1.405       .  A
C1521      H1528   1.082       .  S
C1522      C1523   1.422       .  A
C1523      C1524   1.409       .  A
C1523      C1530   1.517       .  S
C1524      C1525   1.402       .  A
C1524      H1529   1.083       .  S
C1525      C1526   1.413       .  A
C1526      C1527   1.519       .  S
C1527      F1531   1.385       .  S
C1527      F1532   1.384       .  S
C1527      F1533   1.382       .  S
C1530      F1534   1.384       .  S
C1530      F1535   1.382       .  S
C1530      F1536   1.385       .  S
C1537      C1538   1.405       .  A
C1537      C1542   1.402       .  A
C1537      H1544   1.083       .  S
C1538      C1539   1.417       .  A
C1539      C1540   1.407       .  A
C1539      C1546   1.518       .  S
C1540      C1541   1.406       .  A
C1540      H1545   1.083       .  S
C1541      C1542   1.420       .  A
C1542      C1543   1.523       .  S
C1543      F1547   1.385       .  S
C1543      F1548   1.383       .  S
C1543      F1549   1.383       .  S
C1546      F1550   1.383       .  S
C1546      F1551   1.383       .  S
C1546      F1552   1.385       .  S
C1553      C1554   1.409       .  A
C1553      C1558   1.410       .  A
C1553      H1560   1.082       .  S
C1554      C1555   1.427       .  A
C1555      C1556   1.403       .  A
C1555      C1562   1.523       .  S
C1556      C1557   1.399       .  A
C1556      H1561   1.083       .  S
C1557      C1558   1.414       .  A
C1558      C1559   1.518       .  S
C1559      F1563   1.384       .  S
C1559      F1564   1.382       .  S
C1559      F1565   1.383       .  S
C1562      F1566   1.383       .  S
C1562      F1567   1.384       .  S
C1562      F1568   1.385       .  S
C1569      C1570   1.403       .  A
C1569      C1574   1.400       .  A
C1569      H1576   1.082       .  S
C1570      C1571   1.418       .  A
C1571      C1572   1.409       .  A
C1571      C1578   1.518       .  S
C1572      C1573   1.407       .  A
C1572      H1577   1.082       .  S
C1573      C1574   1.424       .  A
C1574      C1575   1.525       .  S
C1575      F1579   1.385       .  S
C1575      F1580   1.384       .  S
C1575      F1581   1.383       .  S
C1578      F1582   1.383       .  S
C1578      F1583   1.381       .  S
C1578      F1584   1.385       .  S
C1585      C1586   1.396       .  A
C1585      C1590   1.398   1_556  A
C1585      H1592   1.085       .  S
C1586      C1587   1.409       .  A
C1587      C1588   1.416   1_556  A
C1587      C1594   1.511       .  S
C1588      C1589   1.408       .  A
C1588      H1593   1.082       .  S
C1589      C1590   1.423       .  A
C1590      C1591   1.520       .  S
C1591      F1595   1.385       .  S
C1591      F1596   1.382       .  S
C1591      F1597   1.381       .  S
C1594      F1598   1.383       .  S
C1594      F1599   1.383       .  S
C1594      F1600   1.380       .  S
C1601      C1602   1.402       .  A
C1601      C1606   1.404       .  A
C1601      H1608   1.084       .  S
C1602      C1603   1.412       .  A
C1603      C1604   1.409       .  A
C1603      C1610   1.516       .  S
C1604      C1605   1.405       .  A
C1604      H1609   1.083       .  S
C1605      C1606   1.415       .  A
C1606      C1607   1.519       .  S
C1607      F1611   1.385       .  S
C1607      F1612   1.384       .  S
C1607      F1613   1.382       .  S
C1610      F1614   1.379       .  S
C1610      F1615   1.381       .  S
C1610      F1616   1.384       .  S
C1617      C1618   1.404       .  A
C1617      C1622   1.394       .  A
C1617      H1624   1.084       .  S
C1618      C1619   1.422       .  A
C1619      C1620   1.410       .  A
C1619      C1626   1.517       .  S
C1620      C1621   1.401       .  A
C1620      H1625   1.083       .  S
C1621      C1622   1.417       .  A
C1622      C1623   1.524       .  S
C1623      F1627   1.384       .  S
C1623      F1628   1.377       .  S
C1623      F1629   1.384       .  S
C1626      F1630   1.383       .  S
C1626      F1631   1.383       .  S
C1626      F1632   1.385       .  S
C1633      C1634   1.402       .  A
C1633      C1638   1.411       .  A
C1633      H1640   1.083       .  S
C1634      C1635   1.421       .  A
C1635      C1636   1.403       .  A
C1635      C1642   1.523       .  S
C1636      C1637   1.402       .  A
C1636      H1641   1.083       .  S
C1637      C1638   1.423       .  A
C1638      C1639   1.518       .  S
C1639      F1643   1.385       .  S
C1639      F1644   1.383       .  S
C1639      F1645   1.383       .  S
C1642      F1646   1.384       .  S
C1642      F1647   1.383       .  S
C1642      F1648   1.385       .  S
C1649      C1650   1.407       .  A
C1649      C1654   1.407       .  A
C1649      H1656   1.082       .  S
C1650      C1651   1.423       .  A
C1651      C1652   1.398       .  A
C1651      C1658   1.524       .  S
C1652      C1653   1.400       .  A
C1652      H1657   1.083       .  S
C1653      C1654   1.415       .  A
C1654      C1655   1.517       .  S
C1655      F1659   1.385       .  S
C1655      F1660   1.383       .  S
C1655      F1661   1.383       .  S
C1658      F1662   1.383       .  S
C1658      F1663   1.383       .  S
C1658      F1664   1.385       .  S
C1665      C1666   1.407       .  A
C1665      C1670   1.411   1_556  A
C1665      H1672   1.082       .  S
C1666      C1667   1.422       .  A
C1667      C1668   1.408   1_556  A
C1667      C1674   1.520       .  S
C1668      C1669   1.406       .  A
C1668      H1673   1.082       .  S
C1669      C1670   1.423       .  A
C1670      C1671   1.521       .  S
C1671      F1675   1.385       .  S
C1671      F1676   1.385       .  S
C1671      F1677   1.382       .  S
C1674      F1678   1.382       .  S
C1674      F1679   1.383       .  S
C1674      F1680   1.385       .  S
C1681      C1682   1.404       .  A
C1681      C1686   1.407       .  A
C1681      H1688   1.082       .  S
C1682      C1683   1.422       .  A
C1683      C1684   1.402       .  A
C1683      C1690   1.521       .  S
C1684      C1685   1.397       .  A
C1684      H1689   1.084       .  S
C1685      C1686   1.415       .  A
C1686      C1687   1.518       .  S
C1687      F1691   1.384       .  S
C1687      F1692   1.384       .  S
C1687      F1693   1.383       .  S
C1690      F1694   1.383       .  S
C1690      F1695   1.384       .  S
C1690      F1696   1.385       .  S
C1697      C1698   1.402       .  A
C1697      C1702   1.403       .  A
C1697      H1704   1.083       .  S
C1698      C1699   1.418       .  A
C1699      C1700   1.403       .  A
C1699      C1706   1.520       .  S
C1700      C1701   1.398       .  A
C1700      H1705   1.083       .  S
C1701      C1702   1.409       .  A
C1702      C1703   1.515       .  S
C1703      F1707   1.384       .  S
C1703      F1708   1.383       .  S
C1703      F1709   1.383       .  S
C1706      F1710   1.383       .  S
C1706      F1711   1.383       .  S
C1706      F1712   1.385       .  S
C1713      C1714   1.402       .  A
C1713      C1718   1.396       .  A
C1713      H1720   1.083       .  S
C1714      C1715   1.420       .  A
C1715      C1716   1.410       .  A
C1715      C1722   1.517       .  S
C1716      C1717   1.403       .  A
C1716      H1721   1.083       .  S
C1717      C1718   1.417       .  A
C1718      C1719   1.523       .  S
C1719      F1723   1.385       .  S
C1719      F1724   1.384       .  S
C1719      F1725   1.383       .  S
C1722      F1726   1.383       .  S
C1722      F1727   1.381       .  S
C1722      F1728   1.385       .  S
C1729      C1730   1.400       .  A
C1729      C1734   1.411       .  A
C1729      H1736   1.083       .  S
C1730      C1731   1.417       .  A
C1731      C1732   1.399       .  A
C1731      C1738   1.522       .  S
C1732      C1733   1.401       .  A
C1732      H1737   1.083       .  S
C1733      C1734   1.425       .  A
C1734      C1735   1.521       .  S
C1735      F1739   1.385       .  S
C1735      F1740   1.384       .  S
C1735      F1741   1.380       .  S
C1738      F1742   1.381       .  S
C1738      F1743   1.382       .  S
C1738      F1744   1.385       .  S
C1745      C1746   1.400       .  A
C1745      C1750   1.399       .  A
C1745      H1752   1.083       .  S
C1746      C1747   1.417       .  A
C1747      C1748   1.407       .  A
C1747      C1754   1.519       .  S
C1748      C1749   1.403       .  A
C1748      H1753   1.083       .  S
C1749      C1750   1.416       .  A
C1750      C1751   1.520       .  S
C1751      F1755   1.385       .  S
C1751      F1756   1.382       .  S
C1751      F1757   1.384       .  S
C1754      F1758   1.383       .  S
C1754      F1759   1.383       .  S
C1754      F1760   1.385       .  S
C1761      C1762   1.409       .  A
C1761      C1766   1.408       .  A
C1761      H1768   1.083       .  S
C1762      C1763   1.419       .  A
C1763      C1764   1.396       .  A
C1763      C1770   1.524       .  S
C1764      C1765   1.401       .  A
C1764      H1769   1.083       .  S
C1765      C1766   1.413       .  A
C1766      C1767   1.517       .  S
C1767      F1771   1.385       .  S
C1767      F1772   1.383       .  S
C1767      F1773   1.381       .  S
C1770      F1774   1.383       .  S
C1770      F1775   1.383       .  S
C1770      F1776   1.385       .  S
C1777      C1778   1.407       .  A
C1777      C1782   1.408   1_556  A
C1777      H1784   1.083       .  S
C1778      C1779   1.423       .  A
C1779      C1780   1.406   1_556  A
C1779      C1786   1.520       .  S
C1780      C1781   1.398       .  A
C1780      H1785   1.082       .  S
C1781      C1782   1.410       .  A
C1782      C1783   1.517       .  S
C1783      F1787   1.384       .  S
C1783      F1788   1.382       .  S
C1783      F1789   1.383       .  S
C1786      F1790   1.382       .  S
C1786      F1791   1.382       .  S
C1786      F1792   1.384       .  S
C1793      C1794   1.406       .  A
C1793      C1798   1.404       .  A
C1793      H1800   1.083       .  S
C1794      C1795   1.423       .  A
C1795      C1796   1.412       .  A
C1795      C1802   1.518       .  S
C1796      C1797   1.402       .  A
C1796      H1801   1.083       .  S
C1797      C1798   1.416       .  A
C1798      C1799   1.520       .  S
C1799      F1803   1.385       .  S
C1799      F1804   1.384       .  S
C1799      F1805   1.382       .  S
C1802      F1806   1.383       .  S
C1802      F1807   1.383       .  S
C1802      F1808   1.385       .  S
C1809      C1810   1.407       .  A
C1809      C1814   1.409       .  A
C1809      H1816   1.083       .  S
C1810      C1811   1.426       .  A
C1811      C1812   1.407       .  A
C1811      C1818   1.521       .  S
C1812      C1813   1.398       .  A
C1812      H1817   1.083       .  S
C1813      C1814   1.415       .  A
C1814      C1815   1.519       .  S
C1815      F1819   1.384       .  S
C1815      F1820   1.382       .  S
C1815      F1821   1.383       .  S
C1818      F1822   1.383       .  S
C1818      F1823   1.383       .  S
C1818      F1824   1.385       .  S
C1825      C1826   1.398       .  A
C1825      C1830   1.407   1_554  A
C1825      H1832   1.083       .  S
C1826      C1827   1.412       .  A
C1827      C1828   1.410   1_554  A
C1827      C1834   1.513       .  S
C1828      C1829   1.404       .  A
C1828      H1833   1.083       .  S
C1829      C1830   1.420       .  A
C1830      C1831   1.518       .  S
C1831      F1835   1.385       .  S
C1831      F1836   1.377       .  S
C1831      F1837   1.382       .  S
C1834      F1838   1.381       .  S
C1834      F1839   1.383       .  S
C1834      F1840   1.384       .  S
C1841      C1842   1.404       .  A
C1841      C1846   1.414       .  A
C1841      H1848   1.083       .  S
C1842      C1843   1.420       .  A
C1843      C1844   1.399       .  A
C1843      C1850   1.523       .  S
C1844      C1845   1.402       .  A
C1844      H1849   1.083       .  S
C1845      C1846   1.423       .  A
C1846      C1847   1.519       .  S
C1847      F1851   1.385       .  S
C1847      F1852   1.383       .  S
C1847      F1853   1.382       .  S
C1850      F1854   1.383       .  S
C1850      F1855   1.384       .  S
C1850      F1856   1.385       .  S
C1857      C1858   1.407       .  A
C1857      C1862   1.415   1_455  A
C1857      H1864   1.081       .  S
C1858      C1859   1.415       .  A
C1859      C1860   1.389   1_455  A
C1859      C1866   1.512       .  S
C1860      C1861   1.394       .  A
C1860      H1865   1.073       .  S
C1861      C1862   1.415       .  A
C1862      C1863   1.510       .  S
C1863      F1867   1.384       .  S
C1863      F1868   1.378       .  S
C1863      F1869   1.383       .  S
C1866      F1870   1.379       .  S
C1866      F1871   1.384       .  S
C1866      F1872   1.384       .  S
C1873      C1874   1.408       .  A
C1873      C1878   1.406       .  A
C1873      H1880   1.083       .  S
C1874      C1875   1.419       .  A
C1875      C1876   1.409       .  A
C1875      C1882   1.517       .  S
C1876      C1877   1.405       .  A
C1876      H1881   1.083       .  S
C1877      C1878   1.417       .  A
C1878      C1879   1.521       .  S
C1879      F1883   1.385       .  S
C1879      F1884   1.383       .  S
C1879      F1885   1.384       .  S
C1882      F1886   1.382       .  S
C1882      F1887   1.383       .  S
C1882      F1888   1.383       .  S
C1889      C1890   1.404       .  A
C1889      C1894   1.399       .  A
C1889      H1896   1.081       .  S
C1890      C1891   1.419       .  A
C1891      C1892   1.410   1_455  A
C1891      C1898   1.518       .  S
C1892      C1893   1.407       .  A
C1892      H1897   1.082       .  S
C1893      C1894   1.426   1_655  A
C1894      C1895   1.527   1_455  S
C1895      F1899   1.385   1_655  S
C1895      F1900   1.383       .  S
C1895      F1901   1.384       .  S
C1898      F1902   1.383       .  S
C1898      F1903   1.384       .  S
C1898      F1904   1.384       .  S
C1905      C1906   1.405       .  A
C1905      C1910   1.417   1_556  A
C1905      H1912   1.083       .  S
C1906      C1907   1.418       .  A
C1907      C1908   1.398   1_556  A
C1907      C1914   1.520       .  S
C1908      C1909   1.400       .  A
C1908      H1913   1.083       .  S
C1909      C1910   1.416       .  A
C1910      C1911   1.510       .  S
C1911      F1915   1.383       .  S
C1911      F1916   1.379       .  S
C1911      F1917   1.383       .  S
C1914      F1918   1.381       .  S
C1914      F1919   1.382       .  S
C1914      F1920   1.385       .  S
C1921      C1922   1.406       .  A
C1921      C1926   1.403       .  A
C1921      H1928   1.083       .  S
C1922      C1923   1.412       .  A
C1923      C1924   1.406       .  A
C1923      C1930   1.514       .  S
C1924      C1925   1.407       .  A
C1924      H1929   1.083       .  S
C1925      C1926   1.417       .  A
C1926      C1927   1.521   1_565  S
C1927      F1931   1.385       .  S
C1927      F1932   1.383       .  S
C1927      F1933   1.383       .  S
C1930      F1934   1.383       .  S
C1930      F1935   1.379       .  S
C1930      F1936   1.384       .  S
C1937      C1938   1.395       .  A
C1937      C1942   1.391       .  A
C1937      H1944   1.083       .  S
C1938      C1939   1.418       .  A
C1939      C1940   1.413       .  A
C1939      C1946   1.518       .  S
C1940      C1941   1.410       .  A
C1940      H1945   1.083       .  S
C1941      C1942   1.423       .  A
C1942      C1943   1.514       .  S
C1943      F1947   1.385       .  S
C1943      F1948   1.380       .  S
C1943      F1949   1.380       .  S
C1946      F1950   1.384       .  S
C1946      F1951   1.383       .  S
C1946      F1952   1.385       .  S
C1953      C1954   1.405       .  A
C1953      C1958   1.405       .  A
C1953      H1960   1.083       .  S
C1954      C1955   1.423       .  A
C1955      C1956   1.406       .  A
C1955      C1962   1.520       .  S
C1956      C1957   1.400       .  A
C1956      H1961   1.083       .  S
C1957      C1958   1.418       .  A
C1958      C1959   1.520       .  S
C1959      F1963   1.385       .  S
C1959      F1964   1.383       .  S
C1959      F1965   1.384       .  S
C1962      F1966   1.383   1_565  S
C1962      F1967   1.383       .  S
C1962      F1968   1.385   1_565  S
C1969      C1970   1.406       .  A
C1969      C1974   1.411       .  A
C1969      H1976   1.083       .  S
C1970      C1971   1.421       .  A
C1971      C1972   1.395       .  A
C1971      C1978   1.522       .  S
C1972      C1973   1.401       .  A
C1972      H1977   1.082       .  S
C1973      C1974   1.418       .  A
C1974      C1975   1.517       .  S
C1975      F1979   1.385       .  S
C1975      F1980   1.383       .  S
C1975      F1981   1.383       .  S
C1978      F1982   1.383       .  S
C1978      F1983   1.383       .  S
C1978      F1984   1.385       .  S
C1985      C1986   1.402       .  A
C1985      C1990   1.407   1_556  A
C1985      H1992   1.082       .  S
C1986      C1987   1.415       .  A
C1987      C1988   1.406   1_556  A
C1987      C1994   1.520       .  S
C1988      C1989   1.404       .  A
C1988      H1993   1.083       .  S
C1989      C1990   1.415       .  A
C1990      C1991   1.519       .  S
C1991      F1995   1.384       .  S
C1991      F1996   1.382       .  S
C1991      F1997   1.381       .  S
C1994      F1998   1.384       .  S
C1994      F1999   1.382       .  S
C1994      F2000   1.384   1_565  S
C2001      C2002   1.402       .  A
C2001      C2006   1.411       .  A
C2001      H2008   1.083       .  S
C2002      C2003   1.424       .  A
C2003      C2004   1.400       .  A
C2003      C2010   1.524       .  S
C2004      C2005   1.402       .  A
C2004      H2009   1.082       .  S
C2005      C2006   1.424       .  A
C2006      C2007   1.518       .  S
C2007      F2011   1.384       .  S
C2007      F2012   1.383       .  S
C2007      F2013   1.384       .  S
C2010      F2014   1.383   1_655  S
C2010      F2015   1.384       .  S
C2010      F2016   1.385       .  S
C2017      C2018   1.402   1_545  A
C2017      C2022   1.399       .  A
C2017      H2024   1.082       .  S
C2018      C2019   1.421       .  A
C2019      C2020   1.412   1_565  A
C2019      C2026   1.518       .  S
C2020      C2021   1.407       .  A
C2020      H2025   1.082       .  S
C2021      C2022   1.424       .  A
C2022      C2023   1.520       .  S
C2023      F2027   1.385       .  S
C2023      F2028   1.383       .  S
C2023      F2029   1.383       .  S
C2026      F2030   1.379       .  S
C2026      F2031   1.383       .  S
C2026      F2032   1.385       .  S
C2033      C2034   1.401       .  A
C2033      C2038   1.404       .  A
C2033      H2040   1.084       .  S
C2034      C2035   1.410       .  A
C2035      C2036   1.405       .  A
C2035      C2042   1.516       .  S
C2036      C2037   1.402       .  A
C2036      H2041   1.084       .  S
C2037      C2038   1.412       .  A
C2038      C2039   1.518       .  S
C2039      F2043   1.385       .  S
C2039      F2044   1.383       .  S
C2039      F2045   1.383       .  S
C2042      F2046   1.383       .  S
C2042      F2047   1.383       .  S
C2042      F2048   1.384       .  S
C2049      C2050   1.401       .  A
C2049      C2054   1.406       .  A
C2049      H2056   1.084       .  S
C2050      C2051   1.411       .  A
C2051      C2052   1.406       .  A
C2051      C2058   1.518   1_655  S
C2052      C2053   1.409       .  A
C2052      H2057   1.082       .  S
C2053      C2054   1.423       .  A
C2054      C2055   1.519       .  S
C2055      F2059   1.385       .  S
C2055      F2060   1.383       .  S
C2055      F2061   1.383       .  S
C2058      F2062   1.382       .  S
C2058      F2063   1.384       .  S
C2058      F2064   1.385       .  S
C2065      C2066   1.400       .  A
C2065      C2070   1.395       .  A
C2065      H2072   1.085       .  S
C2066      C2067   1.414       .  A
C2067      C2068   1.413   1_545  A
C2067      C2074   1.515       .  S
C2068      C2069   1.409       .  A
C2068      H2073   1.083       .  S
C2069      C2070   1.417   1_565  A
C2070      C2071   1.517   1_545  S
C2071      F2075   1.385   1_565  S
C2071      F2076   1.380   1_565  S
C2071      F2077   1.382       .  S
C2074      F2078   1.383       .  S
C2074      F2079   1.383       .  S
C2074      F2080   1.384   1_545  S
C2081      C2082   1.407       .  A
C2081      C2086   1.415       .  A
C2081      H2088   1.083       .  S
C2082      C2083   1.414       .  A
C2083      C2084   1.392       .  A
C2083      C2090   1.519       .  S
C2084      C2085   1.402       .  A
C2084      H2089   1.078       .  S
C2085      C2086   1.418       .  A
C2086      C2087   1.516       .  S
C2087      F2091   1.385       .  S
C2087      F2092   1.383       .  S
C2087      F2093   1.382       .  S
C2090      F2094   1.380       .  S
C2090      F2095   1.383       .  S
C2090      F2096   1.384       .  S
C2097      C2098   1.403       .  A
C2097      C2102   1.413   1_556  A
C2097      H2104   1.083       .  S
C2098      C2099   1.416       .  A
C2099      C2100   1.400   1_556  A
C2099      C2106   1.519       .  S
C2100      C2101   1.401       .  A
C2100      H2105   1.084       .  S
C2101      C2102   1.417       .  A
C2102      C2103   1.517       .  S
C2103      F2107   1.384       .  S
C2103      F2108   1.383       .  S
C2103      F2109   1.383       .  S
C2106      F2110   1.379       .  S
C2106      F2111   1.383       .  S
C2106      F2112   1.385       .  S
