geometry optimzed in LAMMPS
_audit_creation_date              2020-11-30 
_audit_creation_method            'lammps2cif' 
_symmetry_space_group_name_H-M    'P1' 
_symmetry_Int_Tables_number       1 
_symmetry_cell_setting            triclinic 
loop_ 
_symmetry_equiv_pos_as_xyz 
  x,y,z 
_cell_length_a                    44.07953471 
_cell_length_b                    43.818463031873755 
_cell_length_c                    43.784404177117345 
_cell_angle_alpha                 89.88441569933352 
_cell_angle_beta                  89.91691209541949 
_cell_angle_gamma                 90.07417738297185 
loop_ 
_atom_site_label 
_atom_site_type_symbol 
_atom_site_fract_x 
_atom_site_fract_y 
_atom_site_fract_z 
_atom_site_charge 
O1          O  0.00239380  0.04802479  0.08734972    -0.80500
O2          O  0.99877563  0.05311629  0.41259796    -0.82000
O3          O  0.05189490  0.08596297  0.00029117    -0.79000
O4          O  0.45272166  0.08788655  0.00041357    -0.77400
O5          O  0.41509879  0.05210430  0.00060051    -0.79200
O6          O  0.08720890  0.04823100  0.99840729    -0.80100
O7          O  0.00041154  0.08942725  0.45024006    -0.81500
O8          O  0.00232355  0.08574706  0.05109731    -0.81800
Eu9        Eu  0.00132710  0.06193150  0.00023494     2.39200
O10         O  0.47016555  0.03220515  0.47044222    -0.89300
O11         O  0.03180925  0.02979235  0.03052892    -0.92900
C12         C  0.00227615  0.07627532  0.07906249     1.01800
C13         C  0.99948077  0.08103805  0.42198365     1.01600
C14         C  0.07969117  0.07659683  0.99927979     1.01600
C15         C  0.42446014  0.08004884  0.00028287     0.99400
H16         H  0.04357596  0.04521872  0.45561940     0.29200
O17         O  0.03080771  0.03238879  0.46818602    -1.01700
H18         H  0.45865452  0.04421570  0.04523629     0.29200
O19         O  0.47097534  0.03125983  0.03242307    -1.04200
O20         O  0.99858330  0.44942417  0.41292169    -0.81400
O21         O  0.00009919  0.44821929  0.08547321    -0.81000
O22         O  0.08637136  0.99959325  0.44918866    -0.79400
O23         O  0.41329881  0.00107500  0.45216121    -0.82700
O24         O  0.41545736  0.00223812  0.05199473    -0.80600
O25         O  0.08737534  0.99735322  0.04863336    -0.79200
O26         O  0.04778777  0.41039350  0.99653932    -0.80800
O27         O  0.44721939  0.41411847  0.00017279    -0.82700
O28         O  0.08474701  0.44688248  0.99635112    -0.79400
O29         O  0.41173210  0.45181846  0.00185520    -0.82100
O30         O  0.05010250  0.00072387  0.41203784    -0.77800
O31         O  0.05117694  0.99736463  0.08625076    -0.77900
O32         O  0.45166855  0.00041070  0.08903063    -0.77500
O33         O  0.44882839  0.00232316  0.41422064    -0.81000
O34         O  0.99828970  0.41219867  0.44961609    -0.80400
O35         O  0.99961189  0.41145943  0.04839862    -0.78800
Eu36       Eu  0.99952917  0.00213136  0.43660039     2.39800
Eu37       Eu  0.00086539  0.99857605  0.06138965     2.39600
Eu38       Eu  0.06123941  0.99862055  0.99857413     2.38400
Eu39       Eu  0.43922370  0.00155260  0.00122257     2.39900
Eu40       Eu  0.99874564  0.43730139  0.99826234     2.39800
O41         O  0.46829042  0.46821505  0.03052525    -0.93200
O42         O  0.03056685  0.46858678  0.46847279    -0.92100
C43         C  0.99796903  0.42121688  0.42159165     1.02000
C44         C  0.99982691  0.42020450  0.07658546     1.00700
C45         C  0.07804556  0.99946417  0.42103490     1.00100
C46         C  0.42098117  0.00163652  0.42380846     1.02100
C47         C  0.42372264  0.00202803  0.08020089     1.01000
C48         C  0.07901864  0.99717502  0.07696842     0.99900
C49         C  0.07585371  0.41877565  0.99587015     0.99900
C50         C  0.41949124  0.42346306  0.00153255     1.02500
H51         H  0.04305334  0.45405860  0.04226994     0.29900
O52         O  0.03038379  0.46710083  0.02986714    -1.05300
H53         H  0.45543128  0.45729944  0.45519206     0.32000
O54         O  0.46835020  0.46978210  0.46786086    -1.07900
O55         O  0.00068246  0.19868018  0.16288646    -0.80500
O56         O  0.99680773  0.20132471  0.33651572    -0.82000
O57         O  0.04910604  0.16270797  0.25164382    -0.79000
O58         O  0.44980624  0.16321205  0.25233485    -0.77400
O59         O  0.41431491  0.20088670  0.24988504    -0.79200
O60         O  0.08568242  0.19975271  0.25261306    -0.80100
O61         O  0.99554809  0.16354347  0.30030788    -0.81500
O62         O  0.00011023  0.16174108  0.19980792    -0.81800
Eu63       Eu  0.99851071  0.18765131  0.24984400     2.39200
O64         O  0.46996783  0.22013838  0.28117745    -0.89300
O65         O  0.03057185  0.21833610  0.21966443    -0.92900
C66         C  0.00100474  0.17057496  0.17162156     1.01800
C67         C  0.99552230  0.17310950  0.32813516     1.01600
C68         C  0.07716822  0.17156706  0.25272503     1.01600
C69         C  0.42194626  0.17262547  0.25128997     0.99400
H70         H  0.04149508  0.20643734  0.29454321     0.29200
O71         O  0.02923260  0.21893991  0.28121870    -1.01700
H72         H  0.45834341  0.20482889  0.20683589     0.29200
O73         O  0.47077171  0.21777650  0.21956587    -1.04200
O74         O  0.99905245  0.30233616  0.33485196    -0.81400
O75         O  0.00287301  0.29819695  0.16118571    -0.81000
O76         O  0.08521760  0.25241294  0.30081451    -0.79400
O77         O  0.41396182  0.25050861  0.29903199    -0.82700
O78         O  0.41644582  0.24965960  0.19775722    -0.80600
O79         O  0.08733796  0.24853565  0.20213642    -0.79200
O80         O  0.04953570  0.33675236  0.24971614    -0.80800
O81         O  0.45034096  0.33743281  0.24576751    -0.82700
O82         O  0.08634083  0.30013065  0.25076020    -0.79400
O83         O  0.41411837  0.30019625  0.24690986    -0.82100
O84         O  0.04790758  0.25236213  0.33653185    -0.77800
O85         O  0.05182424  0.24620458  0.16456567    -0.77900
O86         O  0.45403933  0.24716640  0.16189557    -0.77500
O87         O  0.45050012  0.25121500  0.33543461    -0.81000
O88         O  0.99956479  0.33877270  0.29741207    -0.80400
O89         O  0.00121506  0.33582634  0.19730835    -0.78800
Eu90       Eu  0.99869165  0.25133025  0.31081642     2.39800
Eu91       Eu  0.00080456  0.24895685  0.18753993     2.39600
Eu92       Eu  0.06075260  0.24994357  0.25082246     2.38400
Eu93       Eu  0.43971610  0.25036184  0.24891618     2.39900
Eu94       Eu  0.99954255  0.31225472  0.24815255     2.39800
O95         O  0.47105416  0.27983138  0.21709572    -0.93200
O96         O  0.02987667  0.28197860  0.28026421    -0.92100
C97         C  0.99960869  0.33040999  0.32564178     1.02000
C98         C  0.00258998  0.32640288  0.16941699     1.00700
C99         C  0.07603328  0.25308863  0.32878238     1.00100
C100        C  0.42260791  0.25066240  0.32726203     1.02100
C101        C  0.42590490  0.24857769  0.16981106     1.01000
C102        C  0.07964011  0.24661884  0.17394044     0.99900
C103        C  0.07749917  0.32824674  0.25006662     0.99900
C104        C  0.42232648  0.32842795  0.24577169     1.02500
H105        H  0.04417398  0.29291669  0.20576524     0.29900
O106        O  0.03104642  0.28061040  0.21841255    -1.05300
H107        H  0.45686741  0.29564766  0.29159149     0.32000
O108        O  0.46969400  0.28256153  0.27942234    -1.07900
O109        O  0.33599625  0.50018235  0.20161209    -0.80500
O110        O  0.16297464  0.49976613  0.19814605    -0.82000
O111        O  0.25034648  0.45120448  0.16319781    -0.79000
O112        O  0.25191676  0.04892090  0.16223714    -0.77400
O113        O  0.25027863  0.08624505  0.19889270    -0.79200
O114        O  0.24977318  0.41361806  0.19954435    -0.80100
O115        O  0.20025234  0.50023823  0.16162868    -0.81500
O116        O  0.30030621  0.50036764  0.16402552    -0.81800
Eu117      Eu  0.24965860  0.50135814  0.18831319     2.39200
O118        O  0.21941759  0.03027408  0.21749328    -0.89300
O119        O  0.28038879  0.47017246  0.21929661    -0.92900
C120        C  0.32815711  0.49983132  0.17331189     1.01800
C121        C  0.17214205  0.49962011  0.17007324     1.01600
C122        C  0.25036387  0.42295765  0.17157501     1.01600
C123        C  0.25153208  0.07706696  0.17098513     0.99400
H124        H  0.20647677  0.45678439  0.20564364     0.29200
O125        O  0.21887087  0.46950400  0.21857997    -1.01700
H126        H  0.29357344  0.04290173  0.20654114     0.29200
O127        O  0.28074219  0.03033123  0.21924715    -1.04200
O128        O  0.16116487  0.49928962  0.29855417    -0.81400
O129        O  0.33493665  0.50307805  0.30134766    -0.81000
O130        O  0.19952959  0.41343456  0.24969929    -0.79400
O131        O  0.19885558  0.08672483  0.24916387    -0.82700
O132        O  0.29999785  0.08697143  0.24798119    -0.80600
O133        O  0.30060484  0.41384316  0.24908608    -0.79200
O134        O  0.24863576  0.44934761  0.33726716    -0.80800
O135        O  0.24810583  0.05064073  0.33694896    -0.82700
O136        O  0.24931042  0.41301924  0.29963739    -0.79400
O137        O  0.24882656  0.08698706  0.29938860    -0.82100
O138        O  0.16227968  0.44966482  0.24959787    -0.77800
O139        O  0.33651859  0.45128074  0.25149312    -0.77900
O140        O  0.33639171  0.05014286  0.25000111    -0.77500
O141        O  0.16304802  0.04900922  0.24857911    -0.81000
O142        O  0.19715553  0.49931692  0.33613253    -0.80400
O143        O  0.29819005  0.50279609  0.33817555    -0.78800
Eu144      Eu  0.18730358  0.50003149  0.24915250     2.39800
Eu145      Eu  0.31028646  0.50085454  0.25126482     2.39600
Eu146      Eu  0.24973151  0.43846492  0.24974585     2.38400
Eu147      Eu  0.24941835  0.06181925  0.24920277     2.39900
Eu148      Eu  0.24812938  0.49987814  0.31276079     2.39800
O149        O  0.28007353  0.03179924  0.28144337    -0.93200
O150        O  0.21817053  0.46910844  0.28048531    -0.92100
C151        C  0.16932252  0.49943627  0.32680127     1.02000
C152        C  0.32624184  0.50390068  0.32942478     1.00700
C153        C  0.17140796  0.42164980  0.25005619     1.00100
C154        C  0.17095941  0.07739093  0.24888420     1.02100
C155        C  0.32809382  0.07822938  0.24828484     1.01000
C156        C  0.32857233  0.42297358  0.25035265     0.99900
C157        C  0.24924764  0.42146547  0.32782794     0.99900
C158        C  0.24848057  0.07859708  0.32766221     1.02500
H159        H  0.29250675  0.45661121  0.29469485     0.29900
O160        O  0.27970556  0.46922161  0.28193813    -1.05300
H161        H  0.20552949  0.04305802  0.29218873     0.32000
O162        O  0.21858365  0.03039070  0.27983885    -1.07900
O163        O  0.19828794  0.16460360  0.50028722    -0.80500
O164        O  0.20181857  0.33735717  0.49665007    -0.82000
O165        O  0.16529849  0.24921344  0.05111632    -0.79000
O166        O  0.16266075  0.25254611  0.44978217    -0.77400
O167        O  0.19958389  0.25208148  0.41359647    -0.79200
O168        O  0.20098507  0.24917989  0.08860470    -0.80100
O169        O  0.16405222  0.30169506  0.49793230    -0.81500
O170        O  0.16290211  0.20250209  0.50042851    -0.81800
Eu171      Eu  0.18873946  0.25180522  0.49956447     2.39200
O172        O  0.22002866  0.28173552  0.46822339    -0.89300
O173        O  0.21963894  0.21925703  0.03192455    -0.92900
C174        C  0.17060066  0.17420686  0.50016237     1.01800
C175        C  0.17363294  0.32948147  0.49684275     1.01600
C176        C  0.17310335  0.24909918  0.07940051     1.01600
C177        C  0.17150802  0.25268272  0.42161770     0.99400
H178        H  0.20744441  0.29353002  0.04503243     0.29200
O179        O  0.22008478  0.28083587  0.03234727    -0.99300
H180        H  0.20536049  0.20709321  0.45641370     0.29200
O181        O  0.21843804  0.21949006  0.46899707    -1.04200
O182        O  0.30151403  0.33654969  0.49814408    -0.81400
O183        O  0.29845736  0.16223367  0.50176629    -0.81000
O184        O  0.25089602  0.29954219  0.08890936    -0.79400
O185        O  0.25002028  0.29955119  0.41161504    -0.82700
O186        O  0.24783449  0.19858640  0.41346852    -0.80600
O187        O  0.25168843  0.19884672  0.08811216    -0.79200
O188        O  0.33818270  0.24817692  0.05016650    -0.80800
O189        O  0.33614489  0.24791147  0.44849641    -0.82700
O190        O  0.30190876  0.24968147  0.08746016    -0.79400
O191        O  0.29907383  0.24869198  0.41252937    -0.82100
O192        O  0.25086309  0.33658681  0.05195016    -0.77800
O193        O  0.25027567  0.16235478  0.05065058    -0.77900
O194        O  0.24737679  0.16199597  0.45082557    -0.77500
O195        O  0.25061764  0.33679995  0.44829823    -0.81000
O196        O  0.33683899  0.29867000  0.49985619    -0.80400
O197        O  0.33612328  0.19796870  0.50070626    -0.78800
Eu198      Eu  0.25149635  0.31214109  0.49887267     2.39800
Eu199      Eu  0.24879889  0.18816880  0.50030708     2.39600
Eu200      Eu  0.25108477  0.24951045  0.06331392     2.38400
Eu201      Eu  0.24970903  0.24953169  0.43769559     2.39900
Eu202      Eu  0.31176207  0.24856609  0.49932603     2.39800
O203        O  0.28021867  0.21797940  0.46857477    -0.93200
O204        O  0.28180090  0.28053371  0.03200127    -0.92100
C205        C  0.32920470  0.32703352  0.49911665     1.02000
C206        C  0.32671581  0.17001555  0.50160512     1.00700
C207        C  0.25049873  0.32768652  0.08012050     1.00100
C208        C  0.24994887  0.32772522  0.42027457     1.02100
C209        C  0.24695683  0.17048831  0.42262452     1.01000
C210        C  0.25113568  0.17086560  0.07882650     0.99900
C211        C  0.32985444  0.24856873  0.07849414     0.99900
C212        C  0.32712972  0.24832850  0.42036644     1.02500
H213        H  0.29404358  0.20536561  0.04417536     0.29900
O214        O  0.28128521  0.21831749  0.03180117    -1.05300
H215        H  0.29428814  0.29248863  0.45514930     0.32000
O216        O  0.28149351  0.28008950  0.46813058    -1.07900
C217        C  0.22457892  0.11242117  0.13692756    -0.06100
C218        C  0.25227808  0.10079378  0.14728075    -0.00200
C219        C  0.27988330  0.11233541  0.13547250    -0.08800
C220        C  0.27873838  0.13442041  0.11211120    -0.06100
C221        C  0.25099146  0.14661087  0.10221638    -0.00200
C222        C  0.22348990  0.13546755  0.11460227    -0.08700
C223        C  0.19320736  0.14753023  0.10361245     0.61700
H224        H  0.20379989  0.10333708  0.14660314     0.12400
H225        H  0.29948710  0.14260517  0.10175312     0.12400
C226        C  0.31013970  0.10252923  0.14879440     0.61900
F227        F  0.16911547  0.13377055  0.11859177    -0.23200
F228        F  0.19027675  0.14193793  0.07268923    -0.20600
F229        F  0.19161367  0.17860537  0.10868632    -0.20200
F230        F  0.31288522  0.07117090  0.14773989    -0.20300
F231        F  0.31177755  0.11187674  0.17890121    -0.20600
F232        F  0.33440290  0.11515430  0.13309829    -0.23300
C233        C  0.22861852  0.37617108  0.14900042    -0.06100
C234        C  0.25054576  0.39937389  0.14743545    -0.00200
C235        C  0.27242772  0.39903386  0.12369395    -0.08800
C236        C  0.27147399  0.37522074  0.10213862    -0.06100
C237        C  0.24982047  0.35172901  0.10392984    -0.00200
C238        C  0.22771689  0.35229236  0.12754463    -0.08700
C239        C  0.20280694  0.32834494  0.12975121     0.61700
H240        H  0.21205252  0.37699129  0.16728628     0.12400
H241        H  0.28803188  0.37446246  0.08384736     0.12400
C242        C  0.29749136  0.42285582  0.12191078     0.61900
F243        F  0.18151957  0.33560345  0.15186328    -0.23200
F244        F  0.21521797  0.30038760  0.13729362    -0.20600
F245        F  0.18784153  0.32599575  0.10211346    -0.20200
F246        F  0.31341929  0.42343595  0.14910243    -0.20300
F247        F  0.28532320  0.45137602  0.11627528    -0.20600
F248        F  0.31787338  0.41656540  0.09879763    -0.23300
C249        C  0.22376253  0.39204137  0.36836187    -0.06100
C250        C  0.24999281  0.39725481  0.35108918    -0.00200
C251        C  0.27635591  0.37965446  0.35637375    -0.08800
C252        C  0.27537036  0.35664046  0.37885928    -0.06100
C253        C  0.24910951  0.35147932  0.39631493    -0.00200
C254        C  0.22284172  0.36934732  0.39106927    -0.08700
C255        C  0.19406247  0.36456644  0.40950928     0.61700
H256        H  0.20404065  0.40611642  0.36402867     0.12400
H257        H  0.29528903  0.34293961  0.38346701     0.12400
C258        C  0.30557601  0.38619767  0.33911116     0.61900
F259        F  0.17055160  0.38279554  0.39920881    -0.23200
F260        F  0.19949463  0.37178516  0.43970191    -0.20600
F261        F  0.18484794  0.33444859  0.40748772    -0.20200
F262        F  0.31435170  0.41608689  0.34422796    -0.20300
F263        F  0.30117905  0.38191811  0.30817449    -0.20600
F264        F  0.32895632  0.36725352  0.34828977    -0.23300
C265        C  0.22741783  0.09975701  0.37552672    -0.06100
C266        C  0.24819791  0.10264898  0.35139661    -0.00200
C267        C  0.26879978  0.12747918  0.35115556    -0.08800
C268        C  0.26729729  0.14912006  0.37476075    -0.06100
C269        C  0.24648197  0.14638039  0.39886308    -0.00200
C270        C  0.22611049  0.12119699  0.39942063    -0.08700
C271        C  0.20259441  0.11712277  0.42451845     0.61700
H272        H  0.21206942  0.08042778  0.37542502     0.12400
H273        H  0.28279208  0.16832079  0.37481941     0.12400
C274        C  0.29280309  0.13076313  0.32657079     0.61900
F275        F  0.18266868  0.09350141  0.41815756    -0.23200
F276        F  0.18577635  0.14355261  0.42766671    -0.20600
F277        F  0.21682601  0.11043146  0.45182638    -0.20200
F278        F  0.27895476  0.13736035  0.29905862    -0.20300
F279        F  0.30917051  0.10395504  0.32405993    -0.20600
F280        F  0.31303710  0.15401739  0.33305917    -0.23300
C281        C  0.40417938  0.12032888  0.23886044    -0.06100
C282        C  0.39707555  0.14930048  0.25050148    -0.00200
C283        C  0.36658172  0.15520063  0.25974644    -0.08800
C284        C  0.34513304  0.13143667  0.25802159    -0.06100
C285        C  0.35244971  0.10216286  0.24739580    -0.00200
C286        C  0.38245088  0.09686211  0.23641535    -0.08700
C287        C  0.39172188  0.06728058  0.22091036     0.61700
H288        H  0.42712097  0.11625321  0.23103896     0.12400
H289        H  0.32210067  0.13571121  0.26499970     0.12400
C290        C  0.35618087  0.18609572  0.27169614     0.61900
F291        F  0.42001076  0.06945994  0.20730935    -0.23200
F292        F  0.37104339  0.05994718  0.19834265    -0.20600
F293        F  0.39316050  0.04404027  0.24212377    -0.20200
F294        F  0.35754131  0.20760547  0.24857719    -0.20300
F295        F  0.37433340  0.19494191  0.29584511    -0.20600
F296        F  0.32651384  0.18548851  0.28204504    -0.23300
C297        C  0.40292101  0.37865098  0.26332392    -0.06100
C298        C  0.39797072  0.35227752  0.24585268    -0.00200
C299        C  0.37016626  0.34941048  0.22959532    -0.08800
C300        C  0.34827065  0.37283096  0.23212529    -0.06100
C301        C  0.35317907  0.39925703  0.24968572    -0.00200
C302        C  0.38121828  0.40221097  0.26564956    -0.08700
C303        C  0.38849087  0.42962747  0.28563871     0.61700
H304        H  0.42417664  0.38054955  0.27554187     0.12400
H305        H  0.32707974  0.37087279  0.21980593     0.12400
C306        C  0.36393605  0.32255996  0.20850262     0.61900
F307        F  0.41479559  0.42534097  0.30237632    -0.23200
F308        F  0.36513191  0.43469203  0.30611204    -0.20600
F309        F  0.39266136  0.45522034  0.26761110    -0.20200
F310        F  0.36102710  0.29594285  0.22524836    -0.20300
F311        F  0.38748054  0.31958582  0.18778751    -0.20600
F312        F  0.33736779  0.32637889  0.19210663    -0.23300
C313        C  0.09701604  0.12168153  0.23492698    -0.06100
C314        C  0.10130995  0.14758581  0.25320683    -0.00200
C315        C  0.12850449  0.15006587  0.27055534    -0.08800
C316        C  0.15041087  0.12663601  0.26851856    -0.06100
C317        C  0.14630595  0.10094303  0.24981753    -0.00200
C318        C  0.11920490  0.09868735  0.23235475    -0.08700
C319        C  0.11502575  0.07392574  0.20865260     0.61700
H320        H  0.07640670  0.12015591  0.22157725     0.12400
H321        H  0.17119752  0.12830763  0.28156930     0.12400
C322        C  0.13451294  0.17695603  0.29155424     0.61900
F323        F  0.11182181  0.04571731  0.22246086    -0.23200
F324        F  0.14017378  0.07394873  0.18987681    -0.20600
F325        F  0.08966381  0.07876528  0.19065629    -0.20200
F326        F  0.10930295  0.18261864  0.30951710    -0.20300
F327        F  0.14129609  0.20255056  0.27430880    -0.20600
F328        F  0.15871700  0.17146574  0.31092414    -0.23300
C329        C  0.12640652  0.34917059  0.26885052    -0.06100
C330        C  0.10111476  0.35253744  0.24968252    -0.00200
C331        C  0.09913148  0.37863604  0.23046049    -0.08800
C332        C  0.12228980  0.40076745  0.23178586    -0.06100
C333        C  0.14779512  0.39725882  0.25064678    -0.00200
C334        C  0.14980150  0.37112342  0.26981353    -0.08700
C335        C  0.17566913  0.36708669  0.29235147     0.61700
H336        H  0.12753949  0.32918968  0.28340903     0.12400
H337        H  0.12081750  0.42098175  0.21764711     0.12400
C338        C  0.07373262  0.38236805  0.20726401     0.61900
F339        F  0.17086057  0.34260821  0.31180414    -0.23200
F340        F  0.17839750  0.39307791  0.31001029    -0.20600
F341        F  0.20252700  0.36191187  0.27687992    -0.20200
F342        F  0.04639031  0.38738823  0.22190196    -0.20300
F343        F  0.07169421  0.35630084  0.18968669    -0.20600
F344        F  0.07882621  0.40674547  0.18776390    -0.23300
C345        C  0.37595810  0.23152873  0.15078325    -0.06100
C346        C  0.40249956  0.24835836  0.14534000    -0.00200
C347        C  0.40528503  0.26516203  0.11767211    -0.08800
C348        C  0.38118333  0.26431117  0.09648426    -0.06100
C349        C  0.35428858  0.24790492  0.10220837    -0.00200
C350        C  0.35180604  0.23093380  0.12983053    -0.08700
C351        C  0.32413670  0.21170235  0.13721732     0.61700
H352        H  0.37418435  0.21881477  0.17195950     0.12400
H353        H  0.38296479  0.27703623  0.07532854     0.12400
C354        C  0.43282210  0.28504466  0.11101141     0.61900
F355        F  0.32902284  0.19248098  0.16188171    -0.23200
F356        F  0.31693897  0.19378897  0.11238873    -0.20600
F357        F  0.29995793  0.23049282  0.14423023    -0.20200
F358        F  0.45811482  0.26697716  0.10640569    -0.20300
F359        F  0.43790243  0.30451606  0.13529018    -0.20600
F360        F  0.42884789  0.30276705  0.08512051    -0.23300
C361        C  0.09646645  0.25492292  0.12071769    -0.06100
C362        C  0.10421200  0.24588415  0.15043200    -0.00200
C363        C  0.13466682  0.23689702  0.15647670    -0.08800
C364        C  0.15611296  0.23863210  0.13264870    -0.06100
C365        C  0.14844227  0.24835943  0.10298253    -0.00200
C366        C  0.11773975  0.25668591  0.09690557    -0.08700
C367        C  0.10689516  0.26823434  0.06593989     0.61700
H368        H  0.07321209  0.26100143  0.11619383     0.12400
H369        H  0.17935294  0.23216450  0.13716919     0.12400
C370        C  0.14481149  0.22465004  0.18740829     0.61900
F371        F  0.07667798  0.27670187  0.06625866    -0.23200
F372        F  0.10962059  0.24551275  0.04435156    -0.20600
F373        F  0.12371174  0.29351722  0.05733402    -0.20200
F374        F  0.12578754  0.20121781  0.19660714    -0.20300
F375        F  0.14447290  0.24778043  0.20886132    -0.20600
F376        F  0.17400683  0.21306821  0.18645124    -0.23300
C377        C  0.11756387  0.25979146  0.40571512    -0.06100
C378        C  0.14775064  0.25357744  0.39700784    -0.00200
C379        C  0.15404448  0.24840667  0.36542085    -0.08800
C380        C  0.12987008  0.24872106  0.34454581    -0.06100
C381        C  0.09968732  0.25421799  0.35330878    -0.00200
C382        C  0.09345994  0.26068428  0.38457430    -0.08700
C383        C  0.06193193  0.26940873  0.39591652     0.61700
H384        H  0.11282131  0.26421563  0.42954377     0.12400
H385        H  0.13459251  0.24438385  0.32072991     0.12400
C386        C  0.18579139  0.24220040  0.35301240     0.61900
F387        F  0.06194191  0.27760174  0.42640958    -0.23200
F388        F  0.04223044  0.24498947  0.39289167    -0.20600
F389        F  0.05130771  0.29416612  0.37941181    -0.20200
F390        F  0.18586801  0.23685433  0.32185147    -0.20300
F391        F  0.20427423  0.26723226  0.35807825    -0.20600
F392        F  0.19779280  0.21657103  0.36696345    -0.23300
C393        C  0.36833622  0.25097834  0.34275216    -0.06100
C394        C  0.39889482  0.25016920  0.35186929    -0.00200
C395        C  0.40556705  0.24928977  0.38380172    -0.08800
C396        C  0.38134335  0.24777305  0.40468526    -0.06100
C397        C  0.35076080  0.24875003  0.39560655    -0.00200
C398        C  0.34412410  0.25096702  0.36372991    -0.08700
C399        C  0.31203452  0.25432373  0.35116536     0.61700
H400        H  0.36335262  0.25223850  0.31861735     0.12400
H401        H  0.38638739  0.24621100  0.42878757     0.12400
C402        C  0.43775445  0.25035120  0.39663931     0.61900
F403        F  0.31157043  0.25679126  0.31963561    -0.23200
F404        F  0.29893727  0.28054492  0.36277408    -0.20600
F405        F  0.29471352  0.22908747  0.35881222    -0.20200
F406        F  0.45235649  0.27656553  0.38678769    -0.20300
F407        F  0.45376001  0.22480589  0.38748297    -0.20600
F408        F  0.43816755  0.25089678  0.42824688    -0.23300
C409        C  0.34544134  0.37891040  0.01357218    -0.06100
C410        C  0.35290639  0.35074439  0.00035208    -0.00200
C411        C  0.38373186  0.34571125  0.48970936    -0.08800
C412        C  0.40450168  0.37001524  0.49104179    -0.06100
C413        C  0.39538876  0.39946614  0.00174754    -0.00200
C414        C  0.36589316  0.40350985  0.01438551    -0.08700
C415        C  0.35576542  0.43295832  0.02956266     0.61700
H416        H  0.32312891  0.38148721  0.02359181     0.12400
H417        H  0.42721637  0.36661939  0.48252231     0.12400
C418        C  0.39439600  0.31528681  0.47685344     0.61900
F419        F  0.32690726  0.43059112  0.04180475    -0.23200
F420        F  0.35569816  0.45594520  0.51078102    -0.20600
F421        F  0.37549764  0.44034467  0.05294299    -0.20200
F422        F  0.37591612  0.30655896  0.45289913    -0.20300
F423        F  0.39457044  0.29393031  0.99026422    -0.20600
F424        F  0.42384749  0.31667843  0.46594804    -0.23300
C425        C  0.37976596  0.15423665  0.01208723    -0.06100
C426        C  0.35227874  0.14740598  0.99729343    -0.00200
C427        C  0.34677077  0.11636656  0.48900889    -0.08800
C428        C  0.37141319  0.09588546  0.48933411    -0.06100
C429        C  0.40075788  0.10446999  0.99916934    -0.00200
C430        C  0.40402159  0.13337661  0.01354076    -0.08700
C431        C  0.43221358  0.14204837  0.03158705     0.61700
H432        H  0.38193242  0.17617840  0.02319609     0.12400
H433        H  0.36923489  0.07406638  0.47799417     0.12400
C434        C  0.31737781  0.10663841  0.47365577     0.61900
F435        F  0.42888594  0.16973357  0.04640947    -0.23200
F436        F  0.45448803  0.14322650  0.51929150    -0.20600
F437        F  0.43790702  0.12008273  0.05353157    -0.20200
F438        F  0.30928303  0.12769572  0.45155095    -0.20300
F439        F  0.29658005  0.10637433  0.98440448    -0.20600
F440        F  0.31994665  0.07847962  0.45961211    -0.23300
C441        C  0.12870114  0.40207431  0.51226022    -0.06100
C442        C  0.10005758  0.39493920  0.99585551    -0.00200
C443        C  0.09726892  0.36602016  0.98141750    -0.08800
C444        C  0.12180511  0.34548646  0.98306951    -0.06100
C445        C  0.14889261  0.35261343  0.99849413    -0.00200
C446        C  0.15287963  0.38113161  0.51298878    -0.08700
C447        C  0.18044229  0.38773411  0.53278572     0.61700
H448        H  0.13010774  0.42275579  0.52568800     0.12400
H449        H  0.11993471  0.32337651  0.97221960     0.12400
C450        C  0.06898403  0.35664284  0.96394524     0.61900
F451        F  0.17623952  0.41313591  0.55095168    -0.23200
F452        F  0.20547077  0.39315284  0.51446413    -0.20600
F453        F  0.18618424  0.36317618  0.55180683    -0.20200
F454        F  0.06112050  0.37920765  0.94336226    -0.20300
F455        F  0.04530941  0.35177533  0.98413298    -0.20600
F456        F  0.07336346  0.32996811  0.94759656    -0.23300
C457        C  0.15619596  0.11867988  0.00430320    -0.06100
C458        C  0.14758774  0.14877601  0.99733708    -0.00200
C459        C  0.11733030  0.15556346  0.48627179    -0.08800
C460        C  0.09559669  0.13207297  0.48818929    -0.06100
C461        C  0.10431118  0.10031816  0.99847525    -0.00200
C462        C  0.13567136  0.09407669  0.00367119    -0.08700
C463        C  0.14829200  0.06203259  0.00838849     0.61700
H464        H  0.17964458  0.11433443  0.01003098     0.12400
H465        H  0.07313046  0.13603346  0.47922424     0.12400
C466        C  0.10970054  0.18442605  0.46836561     0.61900
F467        F  0.16874001  0.07008542  0.54244594    -0.23200
F468        F  0.14358901  0.04652656  0.50503302    -0.20600
F469        F  0.13498532  0.04843867  0.03347586    -0.20200
F470        F  0.13220317  0.19026941  0.44704737    -0.20300
F471        F  0.10544573  0.20666238  0.99790602    -0.20600
F472        F  0.07770907  0.18258269  0.96278262    -0.23300
C473        C  0.34576171  0.48723241  0.37972228    -0.06100
C474        C  0.35128954  0.00452825  0.35384393    -0.00200
C475        C  0.37836693  0.02202633  0.35117135    -0.08800
C476        C  0.40040390  0.02008039  0.37437783    -0.06100
C477        C  0.39608762  0.00217529  0.40064275    -0.00200
C478        C  0.36772256  0.48539167  0.40297398    -0.08700
C479        C  0.36135624  0.46521265  0.43055172     0.61700
H480        H  0.32489074  0.47431600  0.38175754     0.12400
H481        H  0.42135714  0.03285004  0.37218683     0.12400
C482        C  0.38424960  0.04293560  0.32416279     0.61900
F483        F  0.33533706  0.94902534  0.42828876    -0.23200
F484        F  0.35782875  0.98426619  0.45723114    -0.20600
F485        F  0.38525428  0.44531256  0.43520696    -0.20200
F486        F  0.35873199  0.06014036  0.31780887    -0.20300
F487        F  0.38829744  0.52746840  0.29749943    -0.20600
F488        F  0.40760971  0.56278733  0.32873903    -0.23300
C489        C  0.09709285  0.01503316  0.37015795    -0.06100
C490        C  0.10221024  0.99859980  0.39721932    -0.00200
C491        C  0.12901846  0.48068583  0.40086662    -0.08800
C492        C  0.15020274  0.48190751  0.37687202    -0.06100
C493        C  0.14610861  0.99969261  0.34972619    -0.00200
C494        C  0.11884137  0.01671906  0.34667135    -0.08700
C495        C  0.11323418  0.03819128  0.31990608     0.61700
H496        H  0.07600312  0.02742906  0.36788246     0.12400
H497        H  0.17109826  0.46904081  0.37853778     0.12400
C498        C  0.13592705  0.46089680  0.42860829     0.61900
F499        F  0.08711837  0.05529146  0.32386054    -0.23200
F500        F  0.10994591  0.02183596  0.29316624    -0.20600
F501        F  0.13731239  0.05828999  0.31710712    -0.20200
F502        F  0.11229231  0.44071787  0.43362454    -0.20300
F503        F  0.14004812  0.47897851  0.45411818    -0.20600
F504        F  0.16213638  0.44396235  0.42472068    -0.23300
C505        C  0.11763768  0.47313092  0.10775865    -0.06100
C506        C  0.10317987  0.99716147  0.10056645    -0.00200
C507        C  0.11274847  0.02447387  0.11485626    -0.08800
C508        C  0.13633517  0.02312916  0.13649190    -0.06100
C509        C  0.15001616  0.99553603  0.14492162    -0.00200
C510        C  0.14035178  0.47184805  0.13042136    -0.08700
C511        C  0.15500383  0.44156937  0.13844905     0.61700
H512        H  0.11089150  0.45256376  0.09585799     0.12400
H513        H  0.14462905  0.04379715  0.14674100     0.12400
C514        C  0.09790265  0.05490693  0.10753030     0.61900
F515        F  0.14354132  0.41785103  0.12105726    -0.23200
F516        F  0.15506968  0.93136468  0.16728943    -0.20600
F517        F  0.18593132  0.44317189  0.13347434    -0.20200
F518        F  0.06816482  0.05462725  0.11754096    -0.20300
F519        F  0.07894831  0.55936392  0.08364142    -0.20600
F520        F  0.11277492  0.07901202  0.12142775    -0.23300
C521        C  0.40427724  0.49182435  0.13177178    -0.06100
C522        C  0.39937634  0.00305729  0.10404899    -0.00200
C523        C  0.37058642  0.01690114  0.09917669    -0.08800
C524        C  0.34823041  0.01416749  0.12199917    -0.06100
C525        C  0.35390290  0.99982837  0.15012912    -0.00200
C526        C  0.38230701  0.48813662  0.15476558    -0.08700
C527        C  0.39063939  0.46954955  0.18300291     0.61700
H528        H  0.42719518  0.48487752  0.13633902     0.12400
H529        H  0.32595288  0.02368463  0.11804021     0.12400
C530        C  0.36358726  0.03602753  0.07098872     0.61900
F531        F  0.41914125  0.45656472  0.18055000    -0.23200
F532        F  0.36994446  0.44608561  0.18683964    -0.20600
F533        F  0.39153097  0.99078330  0.20936658    -0.20200
F534        F  0.35821871  0.51247909  0.04413869    -0.20300
F535        F  0.38648625  0.05716078  0.06629817    -0.20600
F536        F  0.33669250  0.05201977  0.07410508    -0.23300
C537        C  0.02345842  0.14205919  0.36516550    -0.06100
C538        C  0.99547772  0.14985820  0.35231584    -0.00200
C539        C  0.47346002  0.13443330  0.36327151    -0.08800
C540        C  0.47514662  0.11189727  0.38619414    -0.06100
C541        C  0.99883375  0.10519601  0.39845906    -0.00200
C542        C  0.02569274  0.11937314  0.38774064    -0.08700
C543        C  0.05654886  0.10993842  0.39956817     0.61700
H544        H  0.04366835  0.15347257  0.35680899     0.12400
H545        H  0.45505494  0.09915401  0.39267296     0.12400
C546        C  0.44355608  0.14084649  0.34741721     0.61900
F547        F  0.07983812  0.12619742  0.38580513    -0.23200
F548        F  0.06110789  0.07928074  0.39390425    -0.20600
F549        F  0.05788052  0.11494079  0.43058393    -0.20200
F550        F  0.44571369  0.13269491  0.31700495    -0.20300
F551        F  0.43676746  0.17159024  0.34939361    -0.20600
F552        F  0.41985178  0.12461000  0.36040273    -0.23300
C553        C  0.01725743  0.40169867  0.37252785    -0.06100
C554        C  0.99759293  0.39765769  0.39739636    -0.00200
C555        C  0.47923320  0.37594085  0.39455884    -0.08800
C556        C  0.48052335  0.35453203  0.37077177    -0.06100
C557        C  0.99937886  0.35457717  0.34936331    -0.00200
C558        C  0.01856135  0.38066271  0.34834600    -0.08700
C559        C  0.04085135  0.38620482  0.32242605     0.61700
H560        H  0.03189218  0.42157737  0.37235075     0.12400
H561        H  0.46494868  0.33540074  0.37065515     0.12400
C562        C  0.45600188  0.37163612  0.41976065     0.61900
F563        F  0.05977510  0.41077592  0.32825428    -0.23200
F564        F  0.02521697  0.39243749  0.29579673    -0.20600
F565        F  0.05886863  0.36072632  0.31834078    -0.20200
F566        F  0.44151375  0.39889578  0.42612174    -0.20300
F567        F  0.47059859  0.36111748  0.44563321    -0.20600
F568        F  0.43394142  0.35063479  0.41170881    -0.23300
C569        C  0.02101058  0.37237663  0.09775017    -0.06100
C570        C  0.00023752  0.39640776  0.10059041    -0.00200
C571        C  0.47110909  0.39096492  0.12184414    -0.08800
C572        C  0.47418610  0.36823276  0.14429717    -0.06100
C573        C  0.00289208  0.34989564  0.14521562    -0.00200
C574        C  0.02294831  0.34914775  0.11990286    -0.08700
C575        C  0.04606018  0.32393937  0.11592570     0.61700
H576        H  0.03587137  0.37203122  0.07802217     0.12400
H577        H  0.45830518  0.36712688  0.16318728     0.12400
C578        C  0.44482652  0.41297508  0.12337347     0.61900
F579        F  0.06744547  0.33137165  0.09395022    -0.23200
F580        F  0.03121054  0.29764737  0.10700684    -0.20600
F581        F  0.06136355  0.31861190  0.14295298    -0.20200
F582        F  0.42959321  0.41351093  0.09575884    -0.20300
F583        F  0.45605863  0.44156638  0.12972577    -0.20600
F584        F  0.42422054  0.40506777  0.14595549    -0.23300
C585        C  0.48103507  0.12439842  0.14991184    -0.06100
C586        C  0.00196476  0.14672127  0.14756296    -0.00200
C587        C  0.02254815  0.14792117  0.12253930    -0.08800
C588        C  0.02180888  0.12438293  0.10074404    -0.06100
C589        C  0.00175565  0.09968490  0.10334993    -0.00200
C590        C  0.47900159  0.10150424  0.12752658    -0.08700
C591        C  0.45255254  0.07925963  0.12840588     0.61700
H592        H  0.46414696  0.12565609  0.16787950     0.12400
H593        H  0.03726195  0.12485170  0.08148788     0.12400
C594        C  0.04615239  0.17307349  0.11933693     0.61900
F595        F  0.42980655  0.08915991  0.14782965    -0.23200
F596        F  0.46253483  0.05111634  0.13850321    -0.20600
F597        F  0.44000146  0.07616840  0.09967360    -0.20200
F598        F  0.06309650  0.17493507  0.14583724    -0.20300
F599        F  0.03215573  0.20073420  0.11381045    -0.20600
F600        F  0.06592488  0.16765328  0.09534916    -0.23300
O601        O  0.00034439  0.04852895  0.58733785    -0.80500
O602        O  0.99781856  0.05202867  0.91254381    -0.82000
O603        O  0.05006446  0.08856152  0.50092513    -0.79000
O604        O  0.45144013  0.08746667  0.50312284    -0.77400
O605        O  0.41479394  0.05070607  0.50218419    -0.79200
O606        O  0.08593388  0.05117269  0.49936391    -0.80100
O607        O  0.99999129  0.08808755  0.95033124    -0.81500
O608        O  0.00050386  0.08646060  0.55128715    -0.81800
Eu609      Eu  0.00033389  0.06299546  0.50007122     2.39200
O610        O  0.47037868  0.03227262  0.97028474    -0.89300
O611        O  0.03087655  0.03114605  0.53075062    -0.92900
C612        C  0.00020837  0.07683175  0.57923025     1.01800
C613        C  0.99872949  0.07992515  0.92202912     1.01600
C614        C  0.07792958  0.07946301  0.50053635     1.01600
C615        C  0.42339781  0.07888467  0.50317534     0.99400
H616        H  0.04349317  0.04347355  0.95525451     0.29200
O617        O  0.03077681  0.03080214  0.96803166    -1.01700
H618        H  0.45810776  0.04324034  0.54575502     0.29200
O619        O  0.47058664  0.03059034  0.53280883    -1.04200
O620        O  0.99969709  0.45144621  0.91064775    -0.81400
O621        O  0.99916802  0.44786270  0.58637220    -0.81000
O622        O  0.08516494  0.99814685  0.94814490    -0.79400
O623        O  0.41283201  0.00342062  0.95179258    -0.82700
O624        O  0.41399034  0.00158041  0.55064660    -0.80600
O625        O  0.08667956  0.99820814  0.54895660    -0.79200
O626        O  0.04993145  0.41165623  0.49650597    -0.80800
O627        O  0.44889376  0.41391545  0.50113546    -0.82700
O628        O  0.08661886  0.44848763  0.49768240    -0.79400
O629        O  0.41272561  0.45099911  0.50189576    -0.82100
O630        O  0.04841273  0.99933288  0.91135573    -0.77800
O631        O  0.04988704  0.99694783  0.58602171    -0.77900
O632        O  0.45022270  0.00026868  0.58768289    -0.77500
O633        O  0.44799023  0.00291477  0.91352918    -0.81000
O634        O  0.99858712  0.41362499  0.94693606    -0.80400
O635        O  0.00059023  0.41156667  0.54886278    -0.78800
Eu636      Eu  0.99843266  0.00115944  0.93694144     2.39800
Eu637      Eu  0.99988799  0.99918599  0.56102728     2.39600
Eu638      Eu  0.06129748  0.00059820  0.49897446     2.38400
Eu639      Eu  0.43970950  0.00049493  0.50120862     2.39900
Eu640      Eu  0.00003868  0.43739943  0.49942482     2.39800
O641        O  0.46871289  0.46846058  0.53028713    -0.93200
O642        O  0.02943938  0.46855733  0.96733998    -0.92100
C643        C  0.99919262  0.42319675  0.91897073     1.02000
C644        C  0.99950399  0.41990957  0.57704164     1.00700
C645        C  0.07640343  0.99797472  0.92010668     1.00100
C646        C  0.42018932  0.00334065  0.92329055     1.02100
C647        C  0.42222388  0.00181561  0.57880737     1.01000
C648        C  0.07782610  0.99710758  0.57705029     0.99900
C649        C  0.07795608  0.42037244  0.49621952     0.99900
C650        C  0.42095388  0.42282614  0.50233361     1.02500
H651        H  0.04370943  0.45442066  0.54342789     0.29900
O652        O  0.03108918  0.46749601  0.53101525    -1.05300
H653        H  0.45472023  0.45753334  0.95566585     0.32000
O654        O  0.46787170  0.46971072  0.96838555    -1.07900
O655        O  0.00069115  0.19849269  0.66335728    -0.80500
O656        O  0.99795331  0.20193210  0.83692818    -0.82000
O657        O  0.04902260  0.16405629  0.75306465    -0.79000
O658        O  0.44818078  0.16485713  0.75201917    -0.77400
O659        O  0.41236460  0.20224865  0.75084032    -0.79200
O660        O  0.08592330  0.20095377  0.75422787    -0.80100
O661        O  0.99557802  0.16392455  0.80109943    -0.81500
O662        O  0.99914046  0.16203192  0.70073033    -0.81800
Eu663      Eu  0.99844263  0.18830102  0.75082065     2.39200
O664        O  0.46872022  0.22090934  0.78160989    -0.89300
O665        O  0.03073675  0.21833262  0.72015988    -0.92900
C666        C  0.00032660  0.17053290  0.67242157     1.01800
C667        C  0.99611253  0.17358052  0.82887845     1.01600
C668        C  0.07701692  0.17288275  0.75453361     1.01600
C669        C  0.42026650  0.17405592  0.75167172     0.99400
H670        H  0.04160915  0.20762073  0.79517965     0.29200
O671        O  0.02928876  0.21991629  0.78173304    -1.01700
H672        H  0.45628264  0.20634624  0.70708194     0.29200
O673        O  0.46889071  0.21921759  0.71970526    -1.04200
O674        O  0.99939196  0.30380585  0.83415807    -0.81400
O675        O  0.00054893  0.29610836  0.65989569    -0.81000
O676        O  0.08411735  0.25437106  0.80189908    -0.79400
O677        O  0.41413899  0.25096403  0.80127205    -0.82700
O678        O  0.41351520  0.25045818  0.69911427    -0.80600
O679        O  0.08744305  0.24993300  0.70242848    -0.79200
O680        O  0.04910769  0.33823356  0.74445475    -0.80800
O681        O  0.44927229  0.33834773  0.74826595    -0.82700
O682        O  0.08541669  0.30106937  0.74834005    -0.79400
O683        O  0.41303350  0.30102828  0.74995056    -0.82100
O684        O  0.04719144  0.25364300  0.83796907    -0.77800
O685        O  0.05185147  0.24928431  0.66492346    -0.77900
O686        O  0.45085653  0.24899762  0.66287566    -0.77500
O687        O  0.45070444  0.25372695  0.83797592    -0.81000
O688        O  0.99971123  0.33999409  0.79622636    -0.80400
O689        O  0.99919683  0.33448844  0.69517096    -0.78800
Eu690      Eu  0.99886351  0.25242570  0.81111606     2.39800
Eu691      Eu  0.00045723  0.24841285  0.68801868     2.39600
Eu692      Eu  0.06055850  0.25078622  0.75107308     2.38400
Eu693      Eu  0.43821918  0.25136151  0.74994212     2.39900
Eu694      Eu  0.99912785  0.31297998  0.74712541     2.39800
O695        O  0.46925496  0.28122231  0.71785065    -0.93200
O696        O  0.02965226  0.28326998  0.77997848    -0.92100
C697        C  0.99980498  0.33169343  0.82451597     1.02000
C698        C  0.00003758  0.32438950  0.66746768     1.00700
C699        C  0.07520864  0.25465628  0.83004491     1.00100
C700        C  0.42285310  0.25201897  0.82951441     1.02100
C701        C  0.42271541  0.24980477  0.67101537     1.01000
C702        C  0.07977180  0.24994997  0.67414935     0.99900
C703        C  0.07694869  0.32914119  0.74552189     0.99900
C704        C  0.42133591  0.32919480  0.74903137     1.02500
H705        H  0.04320566  0.29276671  0.70522283     0.29900
O706        O  0.03040472  0.28057835  0.71831951    -1.05300
H707        H  0.45624998  0.29612484  0.79287771     0.32000
O708        O  0.46878682  0.28311163  0.78033109    -1.07900
O709        O  0.33425328  0.50094284  0.70003968    -0.80500
O710        O  0.16329081  0.50037602  0.69772382    -0.82000
O711        O  0.25183765  0.44958043  0.66272539    -0.79000
O712        O  0.24861723  0.05245504  0.66344073    -0.77400
O713        O  0.24732969  0.08945344  0.70045210    -0.79200
O714        O  0.25120698  0.41236567  0.69951838    -0.80100
O715        O  0.20062429  0.49850071  0.66135770    -0.81500
O716        O  0.29902704  0.50053048  0.66211005    -0.81800
Eu717      Eu  0.24947216  0.49955266  0.68786918     2.39200
O718        O  0.21799887  0.03251520  0.71764597    -0.89300
O719        O  0.28018581  0.46843155  0.71908948    -0.92900
C720        C  0.32672159  0.50077535  0.67162072     1.01800
C721        C  0.17259399  0.49920158  0.66968851     1.01600
C722        C  0.25226784  0.42144763  0.67137636     1.01600
C723        C  0.24794514  0.08055162  0.67243652     0.99400
H724        H  0.20626430  0.45522585  0.70574314     0.29200
O725        O  0.21859406  0.46808487  0.71862072    -1.01700
H726        H  0.29214007  0.04508573  0.70640676     0.29200
O727        O  0.27933247  0.03239470  0.71902066    -1.04200
O728        O  0.16111925  0.49941037  0.79852645    -0.81400
O729        O  0.33469115  0.50176909  0.80042004    -0.81000
O730        O  0.19981132  0.41142598  0.75006338    -0.79400
O731        O  0.19757546  0.08832382  0.75190940    -0.82700
O732        O  0.29942100  0.08750377  0.74918163    -0.80600
O733        O  0.29980087  0.41292441  0.75189350    -0.79200
O734        O  0.24782222  0.45025922  0.83810069    -0.80800
O735        O  0.24578330  0.05203800  0.83672795    -0.82700
O736        O  0.24797104  0.41309499  0.80124249    -0.79400
O737        O  0.24778113  0.08884476  0.79959836    -0.82100
O738        O  0.16298016  0.44830186  0.74886708    -0.77800
O739        O  0.33561985  0.45059082  0.75188345    -0.77900
O740        O  0.33566246  0.05051307  0.74928668    -0.77500
O741        O  0.16158677  0.05072629  0.75041388    -0.81000
O742        O  0.19716801  0.50067655  0.83619852    -0.80400
O743        O  0.29858978  0.50233377  0.83770384    -0.78800
Eu744      Eu  0.18723974  0.49926091  0.74899932     2.39800
Eu745      Eu  0.30970295  0.50005376  0.75048820     2.39600
Eu746      Eu  0.24933854  0.43735797  0.75028150     2.38400
Eu747      Eu  0.24815497  0.06341417  0.74985179     2.39900
Eu748      Eu  0.24818876  0.50029226  0.81244089     2.39800
O749        O  0.27858994  0.03253358  0.78145284    -0.93200
O750        O  0.21821756  0.46889271  0.78065299    -0.92100
C751        C  0.16936203  0.50044213  0.82675293     1.02000
C752        C  0.32660211  0.50274068  0.82865773     1.00700
C753        C  0.17187210  0.42018788  0.74946766     1.00100
C754        C  0.16969729  0.07899230  0.75166913     1.02100
C755        C  0.32751148  0.07865319  0.74871545     1.01000
C756        C  0.32763896  0.42231035  0.75247455     0.99900
C757        C  0.24792559  0.42214614  0.82932873     0.99900
C758        C  0.24669010  0.08015162  0.82772307     1.02500
H759        H  0.29196471  0.45657765  0.79480597     0.29900
O760        O  0.27921031  0.46896531  0.78178912    -1.05300
H761        H  0.20411531  0.04414226  0.79294147     0.32000
O762        O  0.21716451  0.03177696  0.78030591    -1.07900
O763        O  0.19950278  0.16406122  0.99955284    -0.80500
O764        O  0.20100674  0.33719423  0.99980022    -0.82000
O765        O  0.16435601  0.25245322  0.54982753    -0.79000
O766        O  0.16393720  0.25243080  0.94999569    -0.77400
O767        O  0.20044208  0.25330200  0.91334387    -0.79200
O768        O  0.20027420  0.25013713  0.58692599    -0.80100
O769        O  0.16413507  0.30061923  0.00016698    -0.81500
O770        O  0.16334320  0.20108962  0.99948319    -0.81800
Eu771      Eu  0.18913419  0.25060586  0.00062661     2.39200
O772        O  0.21993240  0.28161488  0.96992181    -0.89300
O773        O  0.21863743  0.22018057  0.53079818    -0.92900
C774        C  0.17156058  0.17292201  0.99876967     1.01800
C775        C  0.17295697  0.32872453  0.99971772     1.01600
C776        C  0.17232982  0.25097979  0.57803057     1.01600
C777        C  0.17242712  0.25346904  0.92166543     0.99400
H778        H  0.20756821  0.29554477  0.54318357     0.29200
O779        O  0.21990827  0.28245674  0.53062706    -0.99300
H780        H  0.20627739  0.20720234  0.95692677     0.29200
O781        O  0.21932737  0.21944905  0.96968089    -1.04200
O782        O  0.30120160  0.33575540  0.00012476    -0.81400
O783        O  0.29998986  0.16275992  0.99878441    -0.81000
O784        O  0.25249223  0.30065650  0.58593988    -0.79400
O785        O  0.25038264  0.30128958  0.91407002    -0.82700
O786        O  0.24728927  0.19959492  0.91424795    -0.80600
O787        O  0.24785163  0.20082480  0.58739147    -0.79200
O788        O  0.33680730  0.24869374  0.54982522    -0.80800
O789        O  0.33618822  0.25074032  0.94967431    -0.82700
O790        O  0.30008404  0.24925031  0.58678446    -0.79400
O791        O  0.29935302  0.24918770  0.91323836    -0.82100
O792        O  0.25303025  0.33779792  0.54909755    -0.77800
O793        O  0.24692300  0.16351837  0.55078692    -0.77900
O794        O  0.24706019  0.16241731  0.95107499    -0.77500
O795        O  0.25029248  0.33792279  0.95140060    -0.81000
O796        O  0.33744759  0.29866796  0.00129635    -0.80400
O797        O  0.33682828  0.19933910  0.99798753    -0.78800
Eu798      Eu  0.25087483  0.31188893  0.00129900     2.39800
Eu799      Eu  0.24993791  0.18804715  0.00065528     2.39600
Eu800      Eu  0.25017569  0.25051948  0.56151115     2.38400
Eu801      Eu  0.25000396  0.25040339  0.93865566     2.39900
Eu802      Eu  0.31188622  0.24924596  0.00041114     2.39800
O803        O  0.28078216  0.21876203  0.96922025    -0.93200
O804        O  0.28154634  0.28044691  0.52993387    -0.92100
C805        C  0.32909408  0.32676958  0.00042035     1.02000
C806        C  0.32804664  0.17123312  0.99776089     1.00700
C807        C  0.25294289  0.32876641  0.57724064     1.00100
C808        C  0.25013432  0.32932904  0.92321450     1.02100
C809        C  0.24612578  0.17139713  0.92305266     1.01000
C810        C  0.24675306  0.17272302  0.57876041     0.99900
C811        C  0.32807813  0.24855880  0.57806534     0.99900
C812        C  0.32731288  0.25041641  0.92153052     1.02500
H813        H  0.29259252  0.20573175  0.54386813     0.29900
O814        O  0.28033860  0.21861490  0.53091854    -1.05300
H815        H  0.29383037  0.29355569  0.95705928     0.32000
O816        O  0.28117128  0.28081139  0.96983738    -1.07900
C817        C  0.22065024  0.11869522  0.64138027    -0.06100
C818        C  0.24811340  0.10444972  0.64881677    -0.00200
C819        C  0.27516062  0.11310997  0.63373014    -0.08800
C820        C  0.27360415  0.13492949  0.61025828    -0.06100
C821        C  0.24619605  0.14923626  0.60279216    -0.00200
C822        C  0.21924684  0.14126403  0.61851514    -0.08700
C823        C  0.18921404  0.15618834  0.61071547     0.61700
H824        H  0.20032113  0.11184605  0.65353993     0.12400
H825        H  0.29386095  0.14120974  0.59772530     0.12400
C826        C  0.30547389  0.09971127  0.64299220     0.61900
F827        F  0.16564979  0.14464707  0.62823341    -0.23200
F828        F  0.18246770  0.15114727  0.58030350    -0.20600
F829        F  0.19105578  0.18723671  0.61588593    -0.20200
F830        F  0.30472056  0.06848752  0.63940932    -0.20300
F831        F  0.31121922  0.10641450  0.67330135    -0.20600
F832        F  0.32912537  0.11114421  0.62553311    -0.23300
C833        C  0.23062636  0.37553040  0.64688693    -0.06100
C834        C  0.25336573  0.39790772  0.64711163    -0.00200
C835        C  0.27654723  0.39719940  0.62458370    -0.08800
C836        C  0.27530026  0.37470307  0.60161890    -0.06100
C837        C  0.25256830  0.35224695  0.60152302    -0.00200
C838        C  0.23009481  0.35229674  0.62476670    -0.08700
C839        C  0.20650521  0.32712034  0.62726048     0.61700
H840        H  0.21346630  0.37612027  0.66461441     0.12400
H841        H  0.29250024  0.37405277  0.58392275     0.12400
C842        C  0.30305695  0.41935057  0.62550690     0.61900
F843        F  0.18354993  0.33456219  0.64750302    -0.23200
F844        F  0.22052516  0.30090505  0.63768774    -0.20600
F845        F  0.19327112  0.32147210  0.59921035    -0.20200
F846        F  0.31566972  0.41959326  0.65443060    -0.20300
F847        F  0.29319671  0.44836175  0.61813872    -0.20600
F848        F  0.32565699  0.41130228  0.60510471    -0.23300
C849        C  0.22183180  0.38990337  0.86790064    -0.06100
C850        C  0.24891621  0.39846824  0.85334906    -0.00200
C851        C  0.27656471  0.38451135  0.86194930    -0.08800
C852        C  0.27625166  0.36236323  0.88531541    -0.06100
C853        C  0.24913196  0.35344973  0.89956872    -0.00200
C854        C  0.22147212  0.36727581  0.89083961    -0.08700
C855        C  0.19185720  0.35802726  0.90592637     0.61700
H856        H  0.20098242  0.40104690  0.86111814     0.12400
H857        H  0.29724355  0.35203537  0.89283483     0.12400
C858        C  0.30624176  0.39344367  0.84669830     0.61900
F859        F  0.16725323  0.37230428  0.89263108    -0.23200
F860        F  0.19262078  0.36576860  0.93651473    -0.20600
F861        F  0.18763234  0.32687655  0.90326404    -0.20200
F862        F  0.31267533  0.42368803  0.85296431    -0.20300
F863        F  0.30398301  0.38965756  0.81545654    -0.20600
F864        F  0.33021564  0.37576695  0.85682633    -0.23300
C865        C  0.22464099  0.10209291  0.87487109    -0.06100
C866        C  0.24639413  0.10414530  0.85151570    -0.00200
C867        C  0.26765748  0.12844995  0.85179355    -0.08800
C868        C  0.26647439  0.14982325  0.87559243    -0.06100
C869        C  0.24495054  0.14773133  0.89902140    -0.00200
C870        C  0.22326669  0.12371664  0.89861898    -0.08700
C871        C  0.19822172  0.12136196  0.92238716     0.61700
H872        H  0.20848338  0.08345731  0.87415797     0.12400
H873        H  0.28255716  0.16853677  0.87615157     0.12400
C874        C  0.29148326  0.13216994  0.82711080     0.61900
F875        F  0.17755984  0.09858198  0.91538340    -0.23200
F876        F  0.18258619  0.14866801  0.92396768    -0.20600
F877        F  0.21054123  0.11469221  0.95060950    -0.20200
F878        F  0.27751512  0.14186674  0.80056673    -0.20300
F879        F  0.30623523  0.10479938  0.82199003    -0.20600
F880        F  0.31321828  0.15351936  0.83513990    -0.23300
C881        C  0.40332069  0.12156903  0.73960762    -0.06100
C882        C  0.39577301  0.15043179  0.75117385    -0.00200
C883        C  0.36539858  0.15575848  0.76098760    -0.08800
C884        C  0.34435333  0.13164510  0.75942482    -0.06100
C885        C  0.35192760  0.10258030  0.74834699    -0.00200
C886        C  0.38208457  0.09766163  0.73745303    -0.08700
C887        C  0.39215010  0.06814506  0.72229154     0.61700
H888        H  0.42625369  0.11797043  0.73154488     0.12400
H889        H  0.32136512  0.13552300  0.76680060     0.12400
C890        C  0.35467651  0.18642932  0.77324578     0.61900
F891        F  0.42126829  0.07017149  0.71050470    -0.23200
F892        F  0.37283427  0.06122343  0.69842208    -0.20600
F893        F  0.39222745  0.04469393  0.74331511    -0.20200
F894        F  0.35532155  0.20804167  0.75019719    -0.20300
F895        F  0.37300514  0.19555589  0.79717714    -0.20600
F896        F  0.32518486  0.18525178  0.78401569    -0.23300
C897        C  0.40141522  0.37865323  0.76766877    -0.06100
C898        C  0.39698882  0.35262604  0.74958979    -0.00200
C899        C  0.36968317  0.34961430  0.73265044    -0.08800
C900        C  0.34754659  0.37257816  0.73503758    -0.06100
C901        C  0.35205174  0.39883144  0.75278292    -0.00200
C902        C  0.37957887  0.40202960  0.76945854    -0.08700
C903        C  0.38641689  0.42998951  0.78872129     0.61700
H904        H  0.42240534  0.38060790  0.78035377     0.12400
H905        H  0.32657883  0.37046308  0.72234537     0.12400
C906        C  0.36410603  0.32292286  0.71122551     0.61900
F907        F  0.41225275  0.42623759  0.80629616    -0.23200
F908        F  0.36251873  0.43597044  0.80831579    -0.20600
F909        F  0.39117826  0.45469803  0.76967317    -0.20200
F910        F  0.35829420  0.29678753  0.72800375    -0.20300
F911        F  0.38921819  0.31836062  0.69280093    -0.20600
F912        F  0.33949763  0.32805299  0.69228761    -0.23300
C913        C  0.09956621  0.12642842  0.73287438    -0.06100
C914        C  0.10056686  0.14880252  0.75555166    -0.00200
C915        C  0.12346829  0.14742511  0.77824173    -0.08800
C916        C  0.14565205  0.12423199  0.77636786    -0.06100
C917        C  0.14515214  0.10230083  0.75297206    -0.00200
C918        C  0.12147538  0.10322449  0.73109122    -0.08700
C919        C  0.12038896  0.08110330  0.70466984     0.61700
H920        H  0.08167141  0.12778297  0.71598774     0.12400
H921        H  0.16361905  0.12307000  0.79318243     0.12400
C922        C  0.12417088  0.16994369  0.80453270     0.61900
F923        F  0.11507002  0.05178669  0.71514433    -0.23200
F924        F  0.14772868  0.08226950  0.68919754    -0.20600
F925        F  0.09755213  0.08840633  0.68436801    -0.20200
F926        F  0.09568468  0.17224002  0.81767489    -0.20300
F927        F  0.13308320  0.19826907  0.79387017    -0.20600
F928        F  0.14427154  0.16096143  0.82708724    -0.23300
C929        C  0.12031473  0.35367911  0.77066713    -0.06100
C930        C  0.10115963  0.35253358  0.74519796    -0.00200
C931        C  0.10577408  0.37319185  0.72063635    -0.08800
C932        C  0.12923335  0.39494138  0.72294504    -0.06100
C933        C  0.14815016  0.39628556  0.74866425    -0.00200
C934        C  0.14359707  0.37548121  0.77306202    -0.08700
C935        C  0.16227826  0.37709223  0.80207671     0.61700
H936        H  0.11646025  0.33753925  0.78905724     0.12400
H937        H  0.13318329  0.41101910  0.70453638     0.12400
C938        C  0.08706724  0.37136920  0.69164259     0.61900
F939        F  0.15131539  0.35748273  0.82437732    -0.23200
F940        F  0.16138536  0.40642375  0.81363893    -0.20600
F941        F  0.19199166  0.36916837  0.79590368    -0.20200
F942        F  0.05696081  0.37746495  0.69796603    -0.20300
F943        F  0.08957880  0.34242147  0.67949984    -0.20600
F944        F  0.09682123  0.39207316  0.66976476    -0.23300
C945        C  0.37314328  0.23151231  0.65096880    -0.06100
C946        C  0.39922407  0.24945622  0.64642674    -0.00200
C947        C  0.40199631  0.26659382  0.61891045    -0.08800
C948        C  0.37828101  0.26547313  0.59735636    -0.06100
C949        C  0.35205659  0.24786639  0.60209379    -0.00200
C950        C  0.34973326  0.22992732  0.62909379    -0.08700
C951        C  0.32303182  0.20875429  0.63493735     0.61700
H952        H  0.37127694  0.21840475  0.67189859     0.12400
H953        H  0.37997739  0.27864992  0.57646731     0.12400
C954        C  0.42951819  0.28645548  0.61222197     0.61900
F955        F  0.32970439  0.18712492  0.65703017    -0.23200
F956        F  0.31546143  0.19325001  0.60856993    -0.20600
F957        F  0.29840344  0.22560780  0.64477685    -0.20200
F958        F  0.45441818  0.26814880  0.60654329    -0.20300
F959        F  0.43545351  0.30529659  0.63681120    -0.20600
F960        F  0.42513124  0.30486252  0.58686898    -0.23300
C961        C  0.09591875  0.24458951  0.62007737    -0.06100
C962        C  0.10441634  0.25056073  0.65043026    -0.00200
C963        C  0.13560942  0.25691529  0.65668558    -0.08800
C964        C  0.15650740  0.25639982  0.63233354    -0.06100
C965        C  0.14793446  0.25053383  0.60198979    -0.00200
C966        C  0.11681956  0.24418123  0.59579512    -0.08700
C967        C  0.10514395  0.23638190  0.56403483     0.61700
H968        H  0.07231086  0.24015839  0.61526019     0.12400
H969        H  0.18015609  0.26065147  0.63701397     0.12400
C970        C  0.14752151  0.26473492  0.68843435     0.61900
F971        F  0.07490611  0.22782462  0.56424831    -0.23200
F972        F  0.12146262  0.21216502  0.55224423    -0.20600
F973        F  0.10775263  0.26157980  0.54510862    -0.20200
F974        F  0.14404657  0.23998162  0.70778614    -0.20300
F975        F  0.13212578  0.28968438  0.69994528    -0.20600
F976        F  0.17808508  0.27215107  0.68812624    -0.23300
C977        C  0.11771841  0.25732463  0.90700556    -0.06100
C978        C  0.14817451  0.25483716  0.89735615    -0.00200
C979        C  0.15406837  0.25342504  0.86526168    -0.08800
C980        C  0.12947435  0.25416950  0.84486904    -0.06100
C981        C  0.09909930  0.25566999  0.85449169    -0.00200
C982        C  0.09304094  0.25762174  0.88646782    -0.08700
C983        C  0.06101246  0.25985744  0.89953721     0.61700
H984        H  0.11314767  0.25875174  0.93122683     0.12400
H985        H  0.13406622  0.25328466  0.82065273     0.12400
C986        C  0.18580850  0.25098565  0.85163513     0.61900
F987        F  0.06096947  0.26275196  0.93101413    -0.23200
F988        F  0.04478176  0.23372964  0.89258141    -0.20600
F989        F  0.04641821  0.28520681  0.88775223    -0.20200
F990        F  0.18542416  0.24901648  0.82004660    -0.20300
F991        F  0.20252904  0.27661663  0.85912346    -0.20600
F992        F  0.19999531  0.22497310  0.86238166    -0.23300
C993        C  0.37064752  0.26396158  0.84667039    -0.06100
C994        C  0.39911685  0.25160574  0.85382535    -0.00200
C995        C  0.40363109  0.23846846  0.88326445    -0.08800
C996        C  0.37975845  0.23939252  0.90456380    -0.06100
C997        C  0.35110239  0.25126748  0.89725165    -0.00200
C998        C  0.34630496  0.26353995  0.86747764    -0.08700
C999        C  0.31583396  0.27600557  0.85710210     0.61700
H1000       H  0.36742272  0.27366363  0.82415311     0.12400
H1001       H  0.38317957  0.22994838  0.92716495     0.12400
C1002       C  0.43264316  0.22188467  0.89206273     0.61900
F1003       F  0.31765894  0.29034751  0.82895154    -0.23200
F1004       F  0.30531181  0.29719801  0.87783446    -0.20600
F1005       F  0.29523716  0.25230351  0.85451656    -0.20200
F1006       F  0.45604767  0.24256470  0.89589310    -0.20300
F1007       F  0.44017876  0.20116625  0.86958415    -0.20600
F1008       F  0.42942947  0.20570069  0.91908809    -0.23300
C1009       C  0.34618352  0.37906549  0.51313895    -0.06100
C1010       C  0.35362724  0.35060853  0.50034791    -0.00200
C1011       C  0.38207294  0.34680858  0.98711419    -0.08800
C1012       C  0.40284126  0.37108041  0.98871438    -0.06100
C1013       C  0.39693264  0.39872400  0.50309488    -0.00200
C1014       C  0.36728946  0.40309355  0.51530777    -0.08700
C1015       C  0.35772021  0.43226988  0.53148794     0.61700
H1016       H  0.32345548  0.38230047  0.52194466     0.12400
H1017       H  0.42527855  0.36804097  0.97917347     0.12400
C1018       C  0.39119591  0.31796861  0.97003383     0.61900
F1019       F  0.32959170  0.42937995  0.54531452    -0.23200
F1020       F  0.35490022  0.45627895  0.00840410    -0.20600
F1021       F  0.37850935  0.43953225  0.55397474    -0.20200
F1022       F  0.36934094  0.31080277  0.94856449    -0.20300
F1023       F  0.39383161  0.29330572  0.49955804    -0.20600
F1024       F  0.41844871  0.32155575  0.95464399    -0.23300
C1025       C  0.37758902  0.15193786  0.51830315    -0.06100
C1026       C  0.35028555  0.14544870  0.50297385    -0.00200
C1027       C  0.34914446  0.11875012  0.98248756    -0.08800
C1028       C  0.37344581  0.09786680  0.98382957    -0.06100
C1029       C  0.39902089  0.10267503  0.50393065    -0.00200
C1030       C  0.40185238  0.13098679  0.51954078    -0.08700
C1031       C  0.42976955  0.13897352  0.53828825     0.61700
H1032       H  0.37974387  0.17377667  0.52963203     0.12400
H1033       H  0.37122293  0.07591608  0.97273650     0.12400
C1034       C  0.32076964  0.11029177  0.96462984     0.61900
F1035       F  0.42582481  0.16552961  0.55490349    -0.23200
F1036       F  0.45691876  0.14463714  0.01225614    -0.20600
F1037       F  0.43580871  0.11574235  0.55876347    -0.20200
F1038       F  0.31407610  0.13306602  0.94376380    -0.20300
F1039       F  0.29458209  0.10430432  0.49529060    -0.20600
F1040       F  0.32438427  0.08335009  0.94857559    -0.23300
C1041       C  0.12728214  0.40211552  0.01094724    -0.06100
C1042       C  0.10229909  0.39679334  0.49497519    -0.00200
C1043       C  0.10048044  0.37000552  0.47677466    -0.08800
C1044       C  0.12454689  0.34895216  0.47779690    -0.06100
C1045       C  0.15043403  0.35391730  0.49572579    -0.00200
C1046       C  0.15166837  0.38154174  0.01283587    -0.08700
C1047       C  0.17961880  0.39071137  0.03099639     0.61700
H1048       H  0.12921629  0.42417883  0.02185641     0.12400
H1049       H  0.12320074  0.32807219  0.46464567     0.12400
C1050       C  0.07349553  0.36310690  0.45637930     0.61900
F1051       F  0.17515672  0.41755899  0.04701991    -0.23200
F1052       F  0.20389467  0.39516840  0.01144175    -0.20600
F1053       F  0.18662609  0.36821562  0.05200707    -0.20200
F1054       F  0.06541587  0.38867506  0.43973207    -0.20300
F1055       F  0.04927956  0.35374005  0.47418482    -0.20600
F1056       F  0.07997501  0.34011774  0.43570712    -0.23300
C1057       C  0.15246659  0.12261920  0.51373124    -0.06100
C1058       C  0.14611561  0.15088376  0.50008424    -0.00200
C1059       C  0.11699015  0.15440211  0.98876480    -0.08800
C1060       C  0.09579951  0.13055500  0.99159333    -0.06100
C1061       C  0.10222801  0.10333555  0.50098295    -0.00200
C1062       C  0.13146779  0.09848106  0.51386309    -0.08700
C1063       C  0.14098015  0.06819190  0.52780594     0.61700
H1064       H  0.17453023  0.11935233  0.52404346     0.12400
H1065       H  0.07212241  0.13565708  0.98796292     0.12400
C1066       C  0.10643314  0.18469836  0.97538870     0.61900
F1067       F  0.17930860  0.06214505  0.01336372    -0.23200
F1068       F  0.14302649  0.04454235  0.98267477    -0.20600
F1069       F  0.11981428  0.05883425  0.54915303    -0.20200
F1070       F  0.12594074  0.19385590  0.95231975    -0.20300
F1071       F  0.10701013  0.20898982  0.48794405    -0.20600
F1072       F  0.08258030  0.18170462  0.45269765    -0.23300
C1073       C  0.34496957  0.48962995  0.88075460    -0.06100
C1074       C  0.34984900  0.00552990  0.85331320    -0.00200
C1075       C  0.37854061  0.01983695  0.84862380    -0.08800
C1076       C  0.40033654  0.01902936  0.87223540    -0.06100
C1077       C  0.39501233  0.00401937  0.90014267    -0.00200
C1078       C  0.36692001  0.48758653  0.90406240    -0.08700
C1079       C  0.35913226  0.46982370  0.93288775     0.61700
H1080       H  0.32275524  0.47968381  0.88434195     0.12400
H1081       H  0.42212802  0.02996562  0.86886523     0.12400
C1082       C  0.38652246  0.03588764  0.81889488     0.61900
F1083       F  0.33163002  0.95601090  0.93107683    -0.23200
F1084       F  0.35732710  0.99034744  0.95830681    -0.20600
F1085       F  0.38140688  0.44835253  0.93865290    -0.20200
F1086       F  0.36405528  0.05657294  0.81127011    -0.20300
F1087       F  0.39139223  0.50937221  0.79499489    -0.20600
F1088       F  0.41763629  0.54527882  0.81914718    -0.23300
C1089       C  0.09742856  0.01626005  0.87102233    -0.06100
C1090       C  0.10027574  0.99668362  0.89622756    -0.00200
C1091       C  0.12144433  0.47439913  0.89350670    -0.08800
C1092       C  0.14363341  0.47594778  0.87042642    -0.06100
C1093       C  0.14465833  0.99730692  0.84943556    -0.00200
C1094       C  0.11937199  0.01727069  0.84770192    -0.08700
C1095       C  0.11602419  0.04045778  0.82204153     0.61700
H1096       H  0.07798689  0.03131964  0.87004330     0.12400
H1097       H  0.16012806  0.45778059  0.86806619     0.12400
C1098       C  0.12040677  0.44689195  0.91462083     0.61900
F1099       F  0.09290659  0.06102514  0.82776516    -0.23200
F1100       F  0.10942806  0.02562933  0.79500097    -0.20600
F1101       F  0.14263030  0.05693814  0.81874808    -0.20200
F1102       F  0.09099256  0.43622072  0.91755591    -0.20300
F1103       F  0.13137619  0.45493827  0.94304482    -0.20600
F1104       F  0.13790561  0.42324928  0.90351574    -0.23300
C1105       C  0.12241932  0.47301587  0.60395800    -0.06100
C1106       C  0.10145910  0.99778246  0.60080710    -0.00200
C1107       C  0.10694564  0.02428776  0.61840964    -0.08800
C1108       C  0.13019018  0.02354309  0.64033828    -0.06100
C1109       C  0.14798974  0.99753335  0.64532866    -0.00200
C1110       C  0.14607610  0.47281029  0.62565714    -0.08700
C1111       C  0.16744353  0.44570789  0.62774950     0.61700
H1112       H  0.11929526  0.45374518  0.58881709     0.12400
H1113       H  0.13481914  0.04378027  0.65342209     0.12400
C1114       C  0.08908140  0.05388403  0.61527950     0.61900
F1115       F  0.15792551  0.42173773  0.60963253    -0.23200
F1116       F  0.15692678  0.93436564  0.66589381    -0.20600
F1117       F  0.19611803  0.45439741  0.61821975    -0.20200
F1118       F  0.07196902  0.05810991  0.64135706    -0.20300
F1119       F  0.07983605  0.55881431  0.58756604    -0.20600
F1120       F  0.10900383  0.07809570  0.61200439    -0.23300
C1121       C  0.40194260  0.48865818  0.62952618    -0.06100
C1122       C  0.39789756  0.00330525  0.60265786    -0.00200
C1123       C  0.36866766  0.01616416  0.59756609    -0.08800
C1124       C  0.34665357  0.01379666  0.62076988    -0.06100
C1125       C  0.35293799  0.00093830  0.64950510    -0.00200
C1126       C  0.38045413  0.48798908  0.65329252    -0.08700
C1127       C  0.38892948  0.47272897  0.68335224     0.61700
H1128       H  0.42380788  0.47839961  0.63306957     0.12400
H1129       H  0.32401882  0.02210352  0.61639090     0.12400
C1130       C  0.36057892  0.03359061  0.56858595     0.61900
F1131       F  0.41701155  0.45893815  0.68215021    -0.23200
F1132       F  0.36774764  0.45057167  0.69073362    -0.20600
F1133       F  0.39119328  0.99336539  0.70862499    -0.20200
F1134       F  0.35814977  0.51883222  0.54307095    -0.20300
F1135       F  0.38299762  0.05471643  0.56198848    -0.20600
F1136       F  0.33357464  0.04945249  0.57162287    -0.23300
C1137       C  0.02219768  0.14560599  0.87007536    -0.06100
C1138       C  0.99556326  0.15022115  0.85325904    -0.00200
C1139       C  0.47400358  0.12687715  0.85574308    -0.08800
C1140       C  0.47696858  0.10437558  0.87858945    -0.06100
C1141       C  0.99827829  0.10441781  0.89868084    -0.00200
C1142       C  0.02416033  0.12258156  0.89243868    -0.08700
C1143       C  0.05387585  0.11702668  0.90886889     0.61700
H1144       H  0.04174367  0.15975518  0.86496834     0.12400
H1145       H  0.46110068  0.08547950  0.87940903     0.12400
C1146       C  0.44784522  0.12480831  0.83334042     0.61900
F1147       F  0.07675183  0.13611494  0.89850211    -0.23200
F1148       F  0.06303654  0.08716299  0.90451341    -0.20600
F1149       F  0.04990603  0.12220258  0.93962751    -0.20200
F1150       F  0.45816107  0.11307531  0.80595356    -0.20300
F1151       F  0.43520512  0.15323640  0.82829031    -0.20600
F1152       F  0.42506632  0.10605978  0.84443526    -0.23300
C1153       C  0.02655463  0.39136132  0.88115703    -0.06100
C1154       C  0.99890513  0.40011168  0.89445065    -0.00200
C1155       C  0.47189444  0.38851591  0.88237025    -0.08800
C1156       C  0.47398830  0.36639524  0.85924199    -0.06100
C1157       C  0.00022315  0.35594089  0.84777243    -0.00200
C1158       C  0.02762717  0.36959068  0.85753434    -0.08700
C1159       C  0.05756249  0.36162780  0.84233211     0.61700
H1160       H  0.04723331  0.40201860  0.88913731     0.12400
H1161       H  0.45358355  0.35704163  0.84912063     0.12400
C1162       C  0.44108979  0.39906161  0.89365665     0.61900
F1163       F  0.08173218  0.37688419  0.85550934    -0.23200
F1164       F  0.05634247  0.36964976  0.81179393    -0.20600
F1165       F  0.06292182  0.33062676  0.84464742    -0.20200
F1166       F  0.43920755  0.43053274  0.89219244    -0.20300
F1167       F  0.43716974  0.38979072  0.92359193    -0.20600
F1168       F  0.41767826  0.38705565  0.87637114    -0.23300
C1169       C  0.01862644  0.37053070  0.59627692    -0.06100
C1170       C  0.99877218  0.39528685  0.60008987    -0.00200
C1171       C  0.47910977  0.39630596  0.62490704    -0.08800
C1172       C  0.48078408  0.37284944  0.64665902    -0.06100
C1173       C  0.99955177  0.34715724  0.64275144    -0.00200
C1174       C  0.01913472  0.34600248  0.61702408    -0.08700
C1175       C  0.04066148  0.31945299  0.61150579     0.61700
H1176       H  0.03383201  0.37061907  0.57681983     0.12400
H1177       H  0.46556759  0.37283098  0.66611349     0.12400
C1178       C  0.45518797  0.42072897  0.62856983     0.61900
F1179       F  0.06021201  0.32508728  0.58736020    -0.23200
F1180       F  0.02424487  0.29342868  0.60471806    -0.20600
F1181       F  0.05805548  0.31417734  0.63716511    -0.20200
F1182       F  0.43885960  0.42395651  0.60178908    -0.20300
F1183       F  0.46907489  0.44802262  0.63596918    -0.20600
F1184       F  0.43489001  0.41338914  0.65154245    -0.23300
C1185       C  0.47912701  0.12485814  0.64951583    -0.06100
C1186       C  0.00108135  0.14657752  0.64850070    -0.00200
C1187       C  0.02153041  0.14774493  0.62339225    -0.08800
C1188       C  0.02045936  0.12441824  0.60141146    -0.06100
C1189       C  0.99993931  0.10006960  0.60373934    -0.00200
C1190       C  0.47850638  0.10075765  0.62824963    -0.08700
C1191       C  0.45331838  0.07706865  0.62986531     0.61700
H1192       H  0.46138820  0.12673890  0.66656537     0.12400
H1193       H  0.03575592  0.12503128  0.58202586     0.12400
C1194       C  0.04459575  0.17328198  0.61963219     0.61900
F1195       F  0.43006174  0.08615121  0.64904245    -0.23200
F1196       F  0.46500809  0.04992012  0.64083286    -0.20600
F1197       F  0.44095563  0.07215401  0.60130491    -0.20200
F1198       F  0.05948724  0.17851201  0.64692446    -0.20300
F1199       F  0.02993459  0.19959820  0.61039847    -0.20600
F1200       F  0.06634857  0.16623455  0.59791874    -0.23300
O1201       O  0.00058586  0.54822138  0.08773486    -0.80500
O1202       O  0.00017731  0.54988404  0.41210377    -0.82000
O1203       O  0.05370307  0.58408196  0.00258112    -0.79000
O1204       O  0.45358427  0.58841444  0.00245113    -0.77400
O1205       O  0.41612435  0.55262461  0.00189798    -0.79200
O1206       O  0.08899587  0.54626295  0.00009073    -0.80100
O1207       O  0.00190714  0.58653295  0.44938181    -0.81500
O1208       O  0.00250824  0.58587937  0.05145505    -0.81800
Eu1209     Eu  0.00214253  0.56177397  0.00038994     2.39200
O1210       O  0.46917566  0.53218834  0.46952171    -0.89300
O1211       O  0.03186618  0.52908232  0.03050171    -0.92900
C1212       C  0.00134545  0.57648712  0.07946586     1.01800
C1213       C  0.00128072  0.57790295  0.42112031     1.01600
C1214       C  0.08151317  0.57455525  0.00203225     1.01600
C1215       C  0.42538744  0.58065012  0.00249604     0.99400
H1216       H  0.04435391  0.54269884  0.45615883     0.29200
O1217       O  0.03145338  0.53015296  0.46886636    -1.01700
H1218       H  0.45825398  0.54302070  0.04518905     0.29200
O1219       O  0.47041880  0.53000298  0.03229219    -1.04200
O1220       O  0.99991821  0.95273566  0.40979325    -0.81400
O1221       O  0.99955210  0.94787714  0.08511749    -0.81000
O1222       O  0.08604863  0.49834941  0.44975010    -0.79400
O1223       O  0.41233235  0.50136463  0.45100788    -0.82700
O1224       O  0.41363733  0.50240851  0.05068396    -0.80600
O1225       O  0.08711375  0.49797894  0.04871087    -0.79200
O1226       O  0.04823210  0.91147676  0.99613837    -0.80800
O1227       O  0.44819957  0.91414607  0.00178256    -0.82700
O1228       O  0.08521253  0.94795926  0.99622275    -0.79400
O1229       O  0.41287932  0.95210427  0.00253622    -0.82100
O1230       O  0.04962754  0.49802152  0.41270081    -0.77800
O1231       O  0.05080188  0.49985937  0.08620298    -0.77900
O1232       O  0.44965453  0.50043724  0.08784073    -0.77500
O1233       O  0.44797504  0.50203431  0.41313815    -0.81000
O1234       O  0.00009294  0.91503296  0.44619568    -0.80400
O1235       O  0.99948489  0.91139697  0.04776588    -0.78800
Eu1236     Eu  0.99962419  0.49982553  0.43772955     2.39800
Eu1237     Eu  0.00035100  0.49870747  0.06145638     2.39600
Eu1238     Eu  0.06141568  0.49778152  0.99868631     2.38400
Eu1239     Eu  0.43856607  0.50111947  0.00062542     2.39900
Eu1240     Eu  0.99867992  0.93771772  0.99805791     2.39800
O1241       O  0.46943786  0.96919874  0.03137948    -0.93200
O1242       O  0.03038385  0.97062742  0.46713795    -0.92100
C1243       C  0.99999838  0.92447340  0.41821378     1.02000
C1244       C  0.99936676  0.91992404  0.07599992     1.00700
C1245       C  0.07755612  0.49765508  0.42166566     1.00100
C1246       C  0.42012168  0.50159768  0.42269769     1.02100
C1247       C  0.42175873  0.50243170  0.07890184     1.01000
C1248       C  0.07867151  0.49938773  0.07693449     0.99900
C1249       C  0.07632938  0.91983760  0.99565378     0.99900
C1250       C  0.42050773  0.92372215  0.00276392     1.02500
H1251       H  0.04323318  0.95417035  0.04164690     0.29900
O1252       O  0.03055357  0.96735725  0.02941815    -1.05300
H1253       H  0.45655398  0.95723224  0.45628844     0.32000
O1254       O  0.46954437  0.96964506  0.46894596    -1.07900
O1255       O  0.00237813  0.69821046  0.16368576    -0.80500
O1256       O  0.99919337  0.70058514  0.33730542    -0.82000
O1257       O  0.05055586  0.66326040  0.25231233    -0.79000
O1258       O  0.44809926  0.66286550  0.25235449    -0.77400
O1259       O  0.41215481  0.70044333  0.25186540    -0.79200
O1260       O  0.08706564  0.70053812  0.25323969    -0.80100
O1261       O  0.99845925  0.66325366  0.30074729    -0.81500
O1262       O  0.00150634  0.66157920  0.20098382    -0.81800
Eu1263     Eu  0.00016117  0.68797204  0.25069094     2.39200
O1264       O  0.46854838  0.71863259  0.28183296    -0.89300
O1265       O  0.03185861  0.71887331  0.22036951    -0.92900
C1266       C  0.00244381  0.67017931  0.17274836     1.01800
C1267       C  0.99833628  0.67235753  0.32868924     1.01600
C1268       C  0.07846464  0.67234171  0.25341103     1.01600
C1269       C  0.42026628  0.67224709  0.25254623     0.99400
H1270       H  0.04300579  0.70705753  0.29526995     0.29200
O1271       O  0.03059289  0.71947376  0.28200783    -1.01700
H1272       H  0.45608721  0.70455599  0.20721823     0.29200
O1273       O  0.46880978  0.71729703  0.21987139    -1.04200
O1274       O  0.99860278  0.80202775  0.33586934    -0.81400
O1275       O  0.00387187  0.79766234  0.16066284    -0.81000
O1276       O  0.08572583  0.75211496  0.30231565    -0.79400
O1277       O  0.41383135  0.75063928  0.30107711    -0.82700
O1278       O  0.41391780  0.74990065  0.19963983    -0.80600
O1279       O  0.08832152  0.75024753  0.20244844    -0.79200
O1280       O  0.04893912  0.83861512  0.24886674    -0.80800
O1281       O  0.45009603  0.83682989  0.24936360    -0.82700
O1282       O  0.08564164  0.80187901  0.25130055    -0.79400
O1283       O  0.41356077  0.79983855  0.25039989    -0.82100
O1284       O  0.04834840  0.75270014  0.33803693    -0.77800
O1285       O  0.05260019  0.74716251  0.16505943    -0.77900
O1286       O  0.45095154  0.74919072  0.16295924    -0.77500
O1287       O  0.45039680  0.75136456  0.33751076    -0.81000
O1288       O  0.99939242  0.83841368  0.29812260    -0.80400
O1289       O  0.00209538  0.83536667  0.19671975    -0.78800
Eu1290     Eu  0.99944037  0.75116582  0.31170389     2.39800
Eu1291     Eu  0.00159438  0.74877891  0.18791500     2.39600
Eu1292     Eu  0.06182269  0.75073988  0.25156552     2.38400
Eu1293     Eu  0.43828516  0.74954775  0.25029046     2.39900
Eu1294     Eu  0.99989874  0.81241963  0.24824622     2.39800
O1295       O  0.46961160  0.77919752  0.21853154    -0.93200
O1296       O  0.03025954  0.78233574  0.28083675    -0.92100
C1297       C  0.99904017  0.82998067  0.32640475     1.02000
C1298       C  0.00363175  0.82591284  0.16878550     1.00700
C1299       C  0.07650700  0.75261664  0.33034867     1.00100
C1300       C  0.42249607  0.75140831  0.32930065     1.02100
C1301       C  0.42292567  0.75018648  0.17152229     1.01000
C1302       C  0.08044727  0.74833680  0.17422762     0.99900
C1303       C  0.07684898  0.83001626  0.24993496     0.99900
C1304       C  0.42210338  0.82800797  0.24982856     1.02500
H1305       H  0.04455186  0.79304690  0.20624406     0.29900
O1306       O  0.03155707  0.78065053  0.21894532    -1.05300
H1307       H  0.45626793  0.79400262  0.29345120     0.32000
O1308       O  0.46877210  0.78097677  0.28089381    -1.07900
O1309       O  0.33630836  0.00042011  0.20151017    -0.80500
O1310       O  0.16416819  0.99716688  0.19737476    -0.82000
O1311       O  0.25369537  0.94822175  0.16379684    -0.79000
O1312       O  0.24865172  0.55241656  0.16472338    -0.77400
O1313       O  0.24686573  0.58899873  0.20212005    -0.79200
O1314       O  0.25278218  0.91165627  0.20126552    -0.80100
O1315       O  0.20161358  0.99657348  0.16104931    -0.81500
O1316       O  0.30135096  0.99830830  0.16329805    -0.81800
Eu1317     Eu  0.25105285  0.99870521  0.18775157     2.39200
O1318       O  0.21852808  0.53199510  0.21947559    -0.89300
O1319       O  0.28167006  0.96861254  0.22009414    -0.92900
C1320       C  0.32895779  0.99921138  0.17311422     1.01800
C1321       C  0.17346002  0.99623281  0.16933839     1.01600
C1322       C  0.25391132  0.92026673  0.17303829     1.01600
C1323       C  0.24758392  0.58036850  0.17396605     0.99400
H1324       H  0.20807188  0.95423794  0.20609806     0.29200
O1325       O  0.22029461  0.96740744  0.21875468    -1.01700
H1326       H  0.29247802  0.54504301  0.20763789     0.29200
O1327       O  0.27977950  0.53222222  0.22023973    -1.04200
O1328       O  0.16260166  0.99867127  0.29790470    -0.81400
O1329       O  0.33631486  0.00258357  0.30149766    -0.81000
O1330       O  0.20130194  0.91160822  0.25182791    -0.79400
O1331       O  0.19861293  0.58758344  0.25375623    -0.82700
O1332       O  0.29900936  0.58777181  0.25031790    -0.80600
O1333       O  0.30165498  0.91320129  0.25239994    -0.79200
O1334       O  0.24885074  0.95105912  0.33875088    -0.80800
O1335       O  0.24739292  0.54922335  0.33960959    -0.82700
O1336       O  0.24964879  0.91366769  0.30221404    -0.79400
O1337       O  0.24987852  0.58660694  0.30300110    -0.82100
O1338       O  0.16453518  0.94834001  0.25017897    -0.77800
O1339       O  0.33738705  0.95092386  0.25244427    -0.77900
O1340       O  0.33536970  0.55070051  0.25046690    -0.77500
O1341       O  0.16231770  0.55030527  0.24989392    -0.81000
O1342       O  0.19826558  0.00009315  0.33571348    -0.80400
O1343       O  0.29930979  0.00272118  0.33805579    -0.78800
Eu1344     Eu  0.18862808  0.99891663  0.24832924     2.39800
Eu1345     Eu  0.31126303  0.00034141  0.25142465     2.39600
Eu1346     Eu  0.25101356  0.93741466  0.25119449     2.38400
Eu1347     Eu  0.24869586  0.56276105  0.25175570     2.39900
Eu1348     Eu  0.24920215  0.00048883  0.31226860     2.39800
O1349       O  0.27927910  0.53142089  0.28251705    -0.93200
O1350       O  0.21941181  0.96903019  0.28063912    -0.92100
C1351       C  0.17049687  0.99961955  0.32621543     1.02000
C1352       C  0.32746977  0.00346087  0.32957110     1.00700
C1353       C  0.17331235  0.92025665  0.25149251     1.00100
C1354       C  0.17079563  0.57844356  0.25210753     1.02100
C1355       C  0.32697235  0.57881976  0.24981647     1.01000
C1356       C  0.32949193  0.92261838  0.25289372     0.99900
C1357       C  0.24928136  0.92291291  0.33020046     0.99900
C1358       C  0.24884082  0.57740060  0.33107237     1.02500
H1359       H  0.29359909  0.95680493  0.29580161     0.29900
O1360       O  0.28088296  0.96905696  0.28260613    -1.05300
H1361       H  0.20460098  0.54316924  0.29424212     0.32000
O1362       O  0.21746006  0.53076003  0.28143617    -1.07900
O1363       O  0.19971275  0.66407841  0.49966133    -0.80500
O1364       O  0.20239053  0.83969382  0.50179816    -0.82000
O1365       O  0.16389807  0.75015900  0.04980995    -0.79000
O1366       O  0.16346966  0.75393722  0.45091043    -0.77400
O1367       O  0.20020931  0.75204405  0.41456691    -0.79200
O1368       O  0.19996425  0.75101753  0.08687261    -0.80100
O1369       O  0.16514809  0.80330653  0.50132785    -0.81500
O1370       O  0.16371136  0.70138570  0.50081770    -0.81800
Eu1371     Eu  0.18876859  0.75201054  0.50086534     2.39200
O1372       O  0.22028504  0.78285302  0.47070288    -0.89300
O1373       O  0.21931250  0.71919696  0.03161966    -0.92900
C1374       C  0.17189340  0.67307471  0.50000894     1.01800
C1375       C  0.17426337  0.83141498  0.50149922     1.01600
C1376       C  0.17202144  0.75091743  0.07796601     1.01600
C1377       C  0.17225524  0.75341928  0.42274396     0.99400
H1378       H  0.20698906  0.79385508  0.04400879     0.29200
O1379       O  0.21960987  0.78108869  0.03139512    -0.99300
H1380       H  0.20567838  0.70803591  0.45702526     0.29200
O1381       O  0.21861170  0.72033592  0.46984235    -1.04200
O1382       O  0.30280367  0.83617305  0.50084094    -0.81400
O1383       O  0.29861740  0.66275181  0.50097235    -0.81000
O1384       O  0.25052565  0.79957376  0.08776449    -0.79400
O1385       O  0.24901114  0.80216047  0.41491207    -0.82700
O1386       O  0.24814377  0.70102251  0.41334587    -0.80600
O1387       O  0.24904040  0.70013810  0.08834832    -0.79200
O1388       O  0.33717286  0.75094556  0.05125635    -0.80800
O1389       O  0.33534001  0.74934515  0.44954790    -0.82700
O1390       O  0.30005495  0.75082455  0.08782460    -0.79400
O1391       O  0.29844562  0.74993512  0.41343077    -0.82100
O1392       O  0.25165755  0.83707699  0.05137869    -0.77800
O1393       O  0.24889692  0.66310192  0.05149298    -0.77900
O1394       O  0.24863303  0.66384414  0.45022338    -0.77500
O1395       O  0.24928752  0.83886370  0.45216566    -0.81000
O1396       O  0.33838992  0.79843121  0.50069690    -0.80400
O1397       O  0.33598512  0.69868118  0.50030453    -0.78800
Eu1398     Eu  0.25160459  0.81298388  0.50208958     2.39800
Eu1399     Eu  0.24932109  0.68872777  0.50049859     2.39600
Eu1400     Eu  0.25024945  0.74999566  0.06248710     2.38400
Eu1401     Eu  0.24974560  0.75121634  0.43931046     2.39900
Eu1402     Eu  0.31175916  0.74930901  0.50068827     2.39800
O1403       O  0.28052471  0.71920716  0.46935588    -0.93200
O1404       O  0.28144255  0.78097841  0.03171260    -0.92100
C1405       C  0.33063867  0.82674581  0.50055893     1.02000
C1406       C  0.32676770  0.67065432  0.50064844     1.00700
C1407       C  0.25104269  0.82773258  0.07940513     1.00100
C1408       C  0.24849153  0.83021043  0.42400800     1.02100
C1409       C  0.24794087  0.67283007  0.42215427     1.01000
C1410       C  0.24846946  0.67205682  0.07954633     0.99900
C1411       C  0.32812224  0.75084598  0.07938860     0.99900
C1412       C  0.32641887  0.74971667  0.42139900     1.02500
H1413       H  0.29395339  0.70642337  0.04499140     0.29900
O1414       O  0.28147974  0.71906474  0.03201576    -1.05300
H1415       H  0.29408030  0.79412574  0.45743625     0.32000
O1416       O  0.28137125  0.78152132  0.47031777    -1.07900
C1417       C  0.22065151  0.61724970  0.14079437    -0.06100
C1418       C  0.24812686  0.60426838  0.15030808    -0.00200
C1419       C  0.27568076  0.61341634  0.13647935    -0.08800
C1420       C  0.27479266  0.63485689  0.11257840    -0.06100
C1421       C  0.24745667  0.64835316  0.10345767    -0.00200
C1422       C  0.21989115  0.63944776  0.11749699    -0.08700
C1423       C  0.18995011  0.65315472  0.10742835     0.61700
H1424       H  0.19984896  0.60980292  0.15169333     0.12400
H1425       H  0.29551066  0.64157678  0.10113533     0.12400
C1426       C  0.30585771  0.60140309  0.14798562     0.61900
F1427       F  0.16558952  0.64058967  0.12301294    -0.23200
F1428       F  0.18575989  0.64806108  0.07655673    -0.20600
F1429       F  0.19020315  0.68420565  0.11275838    -0.20200
F1430       F  0.30645490  0.56996162  0.14611217    -0.20300
F1431       F  0.30964013  0.60995291  0.17813647    -0.20600
F1432       F  0.33005091  0.61274814  0.13125830    -0.23300
C1433       C  0.23222542  0.87352357  0.15070865    -0.06100
C1434       C  0.25456923  0.89627424  0.14942204    -0.00200
C1435       C  0.27641970  0.89588915  0.12564843    -0.08800
C1436       C  0.27413498  0.87337023  0.10291216    -0.06100
C1437       C  0.25146219  0.85088555  0.10390131    -0.00200
C1438       C  0.23027231  0.85061299  0.12836535    -0.08700
C1439       C  0.20534891  0.82668495  0.13073527     0.61700
H1440       H  0.21600558  0.87409404  0.16931364     0.12400
H1441       H  0.29028467  0.87301820  0.08422662     0.12400
C1442       C  0.30221666  0.91886556  0.12430300     0.61900
F1443       F  0.18469997  0.83351138  0.15357483    -0.23200
F1444       F  0.21792028  0.79857425  0.13742659    -0.20600
F1445       F  0.18962350  0.82491051  0.10347790    -0.20200
F1446       F  0.31493401  0.92268801  0.15292183    -0.20300
F1447       F  0.29132900  0.94656545  0.11390531    -0.20600
F1448       F  0.32505298  0.90931834  0.10482825    -0.23300
C1449       C  0.22323276  0.89490178  0.37167838    -0.06100
C1450       C  0.24958809  0.89940484  0.35430921    -0.00200
C1451       C  0.27574406  0.88172138  0.36028787    -0.08800
C1452       C  0.27422636  0.85886992  0.38287273    -0.06100
C1453       C  0.24785865  0.85424054  0.40026457    -0.00200
C1454       C  0.22194434  0.87263757  0.39489190    -0.08700
C1455       C  0.19315628  0.86882783  0.41357261     0.61700
H1456       H  0.20369720  0.90911994  0.36695020     0.12400
H1457       H  0.29393020  0.84494044  0.38774738     0.12400
C1458       C  0.30550993  0.88830928  0.34405936     0.61900
F1459       F  0.17004267  0.88747507  0.40310287    -0.23200
F1460       F  0.19890150  0.87631225  0.44365466    -0.20600
F1461       F  0.18316009  0.83895193  0.41206380    -0.20200
F1462       F  0.31474162  0.91770360  0.35088004    -0.20300
F1463       F  0.30194052  0.88560533  0.31285363    -0.20600
F1464       F  0.32820482  0.86839312  0.35291752    -0.23300
C1465       C  0.22136277  0.61100852  0.36724536    -0.06100
C1466       C  0.24914322  0.60105019  0.35519128    -0.00200
C1467       C  0.27651671  0.61424887  0.36573759    -0.08800
C1468       C  0.27511841  0.63843996  0.38683678    -0.06100
C1469       C  0.24734457  0.64877705  0.39850030    -0.00200
C1470       C  0.22001359  0.63452400  0.38917701    -0.08700
C1471       C  0.18963254  0.64447277  0.40209698     0.61700
H1472       H  0.20070421  0.60036124  0.35912289     0.12400
H1473       H  0.29578882  0.64903414  0.39498955     0.12400
C1474       C  0.30698724  0.60193056  0.35553366     0.61900
F1475       F  0.16608411  0.62634088  0.39167342    -0.23200
F1476       F  0.18391473  0.67431398  0.39355906    -0.20600
F1477       F  0.19004673  0.64254341  0.43361271    -0.20200
F1478       F  0.30912973  0.60326369  0.32413052    -0.20300
F1479       F  0.30973180  0.57189210  0.36487370    -0.20600
F1480       F  0.33091952  0.61837164  0.36771867    -0.23300
C1481       C  0.40049014  0.62275322  0.23460140    -0.06100
C1482       C  0.39591237  0.64887234  0.25246460    -0.00200
C1483       C  0.36844435  0.65203898  0.26915627    -0.08800
C1484       C  0.34627463  0.62911265  0.26655994    -0.06100
C1485       C  0.35110905  0.60256673  0.24933180    -0.00200
C1486       C  0.37867392  0.59940669  0.23268433    -0.08700
C1487       C  0.38513958  0.57210342  0.21233124     0.61700
H1488       H  0.42150537  0.62083940  0.22190248     0.12400
H1489       H  0.32488289  0.63175326  0.27835044     0.12400
C1490       C  0.36250269  0.67891117  0.29027905     0.61900
F1491       F  0.41083492  0.57645085  0.19462797    -0.23200
F1492       F  0.36102567  0.56712463  0.19278589    -0.20600
F1493       F  0.38990803  0.54651299  0.23012974    -0.20200
F1494       F  0.35623214  0.70469219  0.27318280    -0.20300
F1495       F  0.38752248  0.68428212  0.30850578    -0.20600
F1496       F  0.33805840  0.67351589  0.30947006    -0.23300
C1497       C  0.40297611  0.87818942  0.26803203    -0.06100
C1498       C  0.39813194  0.85197440  0.25020770    -0.00200
C1499       C  0.37092887  0.84948780  0.23304975    -0.08800
C1500       C  0.34927852  0.87296582  0.23503582    -0.06100
C1501       C  0.35394661  0.89911096  0.25291006    -0.00200
C1502       C  0.38142466  0.90193925  0.26975556    -0.08700
C1503       C  0.38783346  0.92923060  0.29024116     0.61700
H1504       H  0.42385486  0.87977089  0.28094768     0.12400
H1505       H  0.32838487  0.87118104  0.22217381     0.12400
C1506       C  0.36483789  0.82266414  0.21197593     0.61900
F1507       F  0.41438209  0.92564107  0.30672727    -0.23200
F1508       F  0.36433395  0.93292407  0.31085727    -0.20600
F1509       F  0.39094841  0.95540141  0.27283623    -0.20200
F1510       F  0.35840403  0.79690981  0.22910699    -0.20300
F1511       F  0.38989353  0.81729545  0.19374372    -0.20600
F1512       F  0.34043070  0.82808393  0.19286258    -0.23300
C1513       C  0.10442490  0.62880050  0.22898372    -0.06100
C1514       C  0.10235720  0.64855087  0.25404826    -0.00200
C1515       C  0.12279626  0.64505304  0.27882911    -0.08800
C1516       C  0.14499541  0.62193508  0.27736109    -0.06100
C1517       C  0.14684655  0.60209095  0.25233991    -0.00200
C1518       C  0.12652422  0.60567573  0.22763349    -0.08700
C1519       C  0.12861708  0.58554056  0.19965918     0.61700
H1520       H  0.08856335  0.63172947  0.21032280     0.12400
H1521       H  0.16084843  0.61881757  0.29598988     0.12400
C1522       C  0.12038577  0.66476310  0.30718365     0.61900
F1523       F  0.11784838  0.55669054  0.20665187    -0.23200
F1524       F  0.15843564  0.58351089  0.18994205    -0.20600
F1525       F  0.11174207  0.59720716  0.17577782    -0.20200
F1526       F  0.09177499  0.66159281  0.31982495    -0.20300
F1527       F  0.12529782  0.69500857  0.29970347    -0.20600
F1528       F  0.14151365  0.65658991  0.32909321    -0.23300
C1529       C  0.12569339  0.84947726  0.26952947    -0.06100
C1530       C  0.10071958  0.85397236  0.25017610    -0.00200
C1531       C  0.09977596  0.88034602  0.23125149    -0.08800
C1532       C  0.12392945  0.90129461  0.23274539    -0.06100
C1533       C  0.14915395  0.89655668  0.25174239    -0.00200
C1534       C  0.15000530  0.87027706  0.27074620    -0.08700
C1535       C  0.17588532  0.86435033  0.29283103     0.61700
H1536       H  0.12600105  0.82929234  0.28385122     0.12400
H1537       H  0.12343565  0.92162595  0.21866377     0.12400
C1538       C  0.07426932  0.88597970  0.20857301     0.61900
F1539       F  0.16946322  0.84045084  0.31256659    -0.23200
F1540       F  0.18116238  0.89004548  0.31032116    -0.20600
F1541       F  0.20184265  0.85693568  0.27673278    -0.20200
F1542       F  0.04776531  0.89298512  0.22394068    -0.20300
F1543       F  0.06980818  0.86024789  0.19096752    -0.20600
F1544       F  0.08079067  0.90996360  0.18895885    -0.23300
C1545       C  0.37417135  0.73141638  0.15075833    -0.06100
C1546       C  0.39912855  0.75110664  0.14750601    -0.00200
C1547       C  0.40026691  0.77137854  0.12215871    -0.08800
C1548       C  0.37655587  0.77057924  0.10057920    -0.06100
C1549       C  0.35172611  0.75069957  0.10369798    -0.00200
C1550       C  0.35046715  0.73068724  0.12924058    -0.08700
C1551       C  0.32483747  0.70783196  0.13328099     0.61700
H1552       H  0.37353575  0.71625382  0.17032619     0.12400
H1553       H  0.37716706  0.78567016  0.08096422     0.12400
C1554       C  0.42591622  0.79426235  0.11804329     0.61900
F1555       F  0.33081856  0.68698246  0.15629922    -0.23200
F1556       F  0.32080332  0.69174246  0.10647981    -0.20600
F1557       F  0.29831591  0.72294684  0.14066994    -0.20200
F1558       F  0.45240757  0.77913040  0.11063694    -0.20300
F1559       F  0.43018820  0.81062687  0.14466740    -0.20600
F1560       F  0.41980849  0.81494831  0.09490981    -0.23300
C1561       C  0.09601900  0.75584314  0.12034903    -0.06100
C1562       C  0.10469729  0.74845337  0.15031809    -0.00200
C1563       C  0.13564517  0.74132514  0.15607296    -0.08800
C1564       C  0.15660112  0.74378801  0.13198087    -0.06100
C1565       C  0.14787241  0.75111641  0.10196056    -0.00200
C1566       C  0.11673088  0.75750157  0.09602985    -0.08700
C1567       C  0.10470579  0.76605982  0.06453968     0.61700
H1568       H  0.07237385  0.75990269  0.11582669     0.12400
H1569       H  0.18025814  0.73915406  0.13652689     0.12400
C1570       C  0.14676674  0.72926122  0.18667439     0.61900
F1571       F  0.07432560  0.77393807  0.06509504    -0.23200
F1572       F  0.10747501  0.74146703  0.04510435    -0.20600
F1573       F  0.12055942  0.79083245  0.05305549    -0.20200
F1574       F  0.12860603  0.70521008  0.19601704    -0.20300
F1575       F  0.14620411  0.75222010  0.20829134    -0.20600
F1576       F  0.17623134  0.71843581  0.18496617    -0.23300
C1577       C  0.11828004  0.74845522  0.40740564    -0.06100
C1578       C  0.14844620  0.75384526  0.39837104    -0.00200
C1579       C  0.15458546  0.75945662  0.36685619    -0.08800
C1580       C  0.13031553  0.75885785  0.34604124    -0.06100
C1581       C  0.10014479  0.75319707  0.35500835    -0.00200
C1582       C  0.09397487  0.74809585  0.38662383    -0.08700
C1583       C  0.06218748  0.74244430  0.39913203     0.61700
H1584       H  0.11367194  0.74445778  0.43133716     0.12400
H1585       H  0.13496431  0.76296687  0.32213172     0.12400
C1586       C  0.18625156  0.76639349  0.35455630     0.61900
F1587       F  0.06218953  0.73659544  0.43022312    -0.23200
F1588       F  0.04933715  0.71739787  0.38497336    -0.20600
F1589       F  0.04444127  0.76802722  0.39438315    -0.20200
F1590       F  0.18596561  0.77384445  0.32381654    -0.20300
F1591       F  0.19859029  0.79098849  0.36992955    -0.20600
F1592       F  0.20467757  0.74106615  0.35790685    -0.23300
C1593       C  0.36817971  0.75129512  0.34421529    -0.06100
C1594       C  0.39863553  0.75214787  0.35369788    -0.00200
C1595       C  0.40493976  0.75350952  0.38566130    -0.08800
C1596       C  0.38057566  0.75182110  0.40629219    -0.06100
C1597       C  0.35013330  0.75047748  0.39684894    -0.00200
C1598       C  0.34374047  0.75079456  0.36486539    -0.08700
C1599       C  0.31169278  0.75011925  0.35173911     0.61700
H1600       H  0.36342968  0.75086769  0.32001376     0.12400
H1601       H  0.38540070  0.75184276  0.43048279     0.12400
C1602       C  0.43675457  0.75751641  0.39880287     0.61900
F1603       F  0.31154734  0.75137761  0.32012595    -0.23200
F1604       F  0.29530702  0.77502191  0.36194061    -0.20600
F1605       F  0.29738345  0.72329821  0.36027401    -0.20200
F1606       F  0.44985686  0.78373826  0.38703120    -0.20300
F1607       F  0.45451734  0.73245793  0.39200638    -0.20600
F1608       F  0.43653156  0.76044398  0.43029292    -0.23300
C1609       C  0.34609477  0.87999966  0.01584106    -0.06100
C1610       C  0.35238122  0.85250191  0.00064102    -0.00200
C1611       C  0.38451630  0.84625850  0.48817742    -0.08800
C1612       C  0.40543018  0.87046113  0.48978088    -0.06100
C1613       C  0.39606858  0.90011932  0.00296774    -0.00200
C1614       C  0.36703600  0.90430153  0.01664523    -0.08700
C1615       C  0.35780458  0.93389330  0.03217689     0.61700
H1616       H  0.32426432  0.88243463  0.02693359     0.12400
H1617       H  0.42764545  0.86772324  0.47964038     0.12400
C1618       C  0.39405156  0.81719109  0.47178026     0.61900
F1619       F  0.32977934  0.93156984  0.04628266    -0.23200
F1620       F  0.35774934  0.95512398  0.51557331    -0.20600
F1621       F  0.37888033  0.94172676  0.05418915    -0.20200
F1622       F  0.37389630  0.81101105  0.44843599    -0.20300
F1623       F  0.39315239  0.79647773  0.98146167    -0.20600
F1624       F  0.42273754  0.81967751  0.45901511    -0.23300
C1625       C  0.38151016  0.65595586  0.01287080    -0.06100
C1626       C  0.35245416  0.64754015  0.00258032    -0.00200
C1627       C  0.34566094  0.61587768  0.49075314    -0.08800
C1628       C  0.36999524  0.59515157  0.49167866    -0.06100
C1629       C  0.40151607  0.60505865  0.00272550    -0.00200
C1630       C  0.40637119  0.63573709  0.01246354    -0.08700
C1631       C  0.43739839  0.64800093  0.02162075     0.61700
H1632       H  0.38481896  0.67907627  0.02084296     0.12400
H1633       H  0.36673500  0.57229087  0.48297242     0.12400
C1634       C  0.31551918  0.60507179  0.47770372     0.61900
F1635       F  0.43592629  0.67774131  0.03219640    -0.23200
F1636       F  0.45535867  0.64531499  0.51005263    -0.20600
F1637       F  0.44970285  0.63045723  0.04470076    -0.20200
F1638       F  0.30657814  0.62423531  0.45427490    -0.20300
F1639       F  0.29605312  0.60510810  0.00129311    -0.20600
F1640       F  0.31731362  0.57582528  0.46590102    -0.23300
C1641       C  0.12703282  0.90318555  0.51722080    -0.06100
C1642       C  0.10052377  0.89589769  0.99579036    -0.00200
C1643       C  0.09782912  0.86709946  0.98109566    -0.08800
C1644       C  0.12215239  0.84630978  0.98309485    -0.06100
C1645       C  0.14911355  0.85312518  0.99883699    -0.00200
C1646       C  0.15143281  0.88246734  0.51872922    -0.08700
C1647       C  0.17784072  0.88942447  0.53981756     0.61700
H1648       H  0.12740175  0.92362585  0.53109138     0.12400
H1649       H  0.12032238  0.82430754  0.97203138     0.12400
C1650       C  0.06994900  0.85821638  0.96273821     0.61900
F1651       F  0.17163663  0.91367252  0.55905890    -0.23200
F1652       F  0.20310498  0.89692069  0.52262329    -0.20600
F1653       F  0.18419393  0.86434005  0.55783071    -0.20200
F1654       F  0.06366720  0.88052501  0.94127858    -0.20300
F1655       F  0.04534635  0.85453414  0.98201247    -0.20600
F1656       F  0.07408637  0.83100163  0.94728959    -0.23300
C1657       C  0.15753008  0.61704782  0.01145490    -0.06100
C1658       C  0.14964569  0.64644501  0.00105013    -0.00200
C1659       C  0.11844756  0.65313661  0.48838248    -0.08800
C1660       C  0.09722364  0.62936983  0.49142115    -0.06100
C1661       C  0.10618903  0.59814003  0.00256238    -0.00200
C1662       C  0.13663666  0.59260409  0.01210503    -0.08700
C1663       C  0.14735537  0.56170626  0.02392663     0.61700
H1664       H  0.18050776  0.61327498  0.01924134     0.12400
H1665       H  0.07404241  0.63373298  0.48501749     0.12400
C1666       C  0.10948972  0.68162395  0.47067944     0.61900
F1667       F  0.17497775  0.56683573  0.53771540    -0.23200
F1668       F  0.14817636  0.54368927  0.50113115    -0.20600
F1669       F  0.12925593  0.55243275  0.04792048    -0.20200
F1670       F  0.13106195  0.68769072  0.44848327    -0.20300
F1671       F  0.10849153  0.70403096  0.99800931    -0.20600
F1672       F  0.08086827  0.67945610  0.96340682    -0.23300
C1673       C  0.34660125  0.98721159  0.38044098    -0.06100
C1674       C  0.35019371  0.50496245  0.35337019    -0.00200
C1675       C  0.37728947  0.52243370  0.35046019    -0.08800
C1676       C  0.39945630  0.52025910  0.37349781    -0.06100
C1677       C  0.39530164  0.50207158  0.39958401    -0.00200
C1678       C  0.36835646  0.98569712  0.40400608    -0.08700
C1679       C  0.36164048  0.96596564  0.43183341     0.61700
H1680       H  0.32567143  0.97440177  0.38244333     0.12400
H1681       H  0.42034552  0.53314178  0.37141786     0.12400
C1682       C  0.38281138  0.54400014  0.32376416     0.61900
F1683       F  0.33530358  0.44790147  0.42688496    -0.23200
F1684       F  0.35731756  0.48322615  0.45609072    -0.20600
F1685       F  0.38522655  0.94575681  0.43673545    -0.20200
F1686       F  0.35783306  0.56251769  0.31945286    -0.20300
F1687       F  0.39182501  0.02549284  0.29908713    -0.20600
F1688       F  0.40788801  0.06301225  0.32973107    -0.23300
C1689       C  0.09647565  0.51478293  0.37144009    -0.06100
C1690       C  0.10152742  0.49738252  0.39788542    -0.00200
C1691       C  0.12996763  0.98235566  0.40071406    -0.08800
C1692       C  0.15108664  0.98284316  0.37656593    -0.06100
C1693       C  0.14516411  0.49933466  0.35043834    -0.00200
C1694       C  0.11801014  0.51659345  0.34781394    -0.08700
C1695       C  0.11189647  0.53772487  0.32093796     0.61700
H1696       H  0.07549692  0.52750352  0.36961050     0.12400
H1697       H  0.17206947  0.97016957  0.37860028     0.12400
C1698       C  0.13754730  0.96429373  0.42943463     0.61900
F1699       F  0.08793405  0.55731622  0.32673520    -0.23200
F1700       F  0.10474421  0.52068523  0.29539047    -0.20600
F1701       F  0.13716634  0.55551009  0.31499256    -0.20200
F1702       F  0.11427104  0.94417064  0.43612144    -0.20300
F1703       F  0.14187064  0.98400601  0.45367537    -0.20600
F1704       F  0.16389960  0.94746242  0.42614971    -0.23300
C1705       C  0.11760872  0.96953170  0.10806083    -0.06100
C1706       C  0.10284412  0.50052823  0.10035067    -0.00200
C1707       C  0.11127863  0.52781606  0.11561405    -0.08800
C1708       C  0.13398463  0.52639571  0.13818523    -0.06100
C1709       C  0.14860245  0.49902254  0.14581286    -0.00200
C1710       C  0.14113226  0.96828908  0.13000142    -0.08700
C1711       C  0.15721402  0.93839809  0.13656498     0.61700
H1712       H  0.11042383  0.94897113  0.09641835     0.12400
H1713       H  0.14082758  0.54710579  0.14959246     0.12400
C1714       C  0.09747717  0.55896921  0.10905784     0.61900
F1715       F  0.14491767  0.91445227  0.12009834    -0.23200
F1716       F  0.14970572  0.43491700  0.16884835    -0.20600
F1717       F  0.18748392  0.94109039  0.12865355    -0.20200
F1718       F  0.08041821  0.56804054  0.13389943    -0.20300
F1719       F  0.09816207  0.06012053  0.07645556    -0.20600
F1720       F  0.12046237  0.58005383  0.10433998    -0.23300
C1721       C  0.40520817  0.98946145  0.13253788    -0.06100
C1722       C  0.39746597  0.50378565  0.10281688    -0.00200
C1723       C  0.36786333  0.51573685  0.09768852    -0.08800
C1724       C  0.34616509  0.51343283  0.12124673    -0.06100
C1725       C  0.35270270  0.50003585  0.14970777    -0.00200
C1726       C  0.38309933  0.98727633  0.15566488    -0.08700
C1727       C  0.39083067  0.97057779  0.18523143     0.61700
H1728       H  0.42744383  0.98045048  0.13667308     0.12400
H1729       H  0.32359925  0.52229145  0.11748255     0.12400
C1730       C  0.35921756  0.53250235  0.06845753     0.61900
F1731       F  0.41899267  0.95689023  0.18409264    -0.23200
F1732       F  0.36951474  0.94801729  0.19083377    -0.20600
F1733       F  0.39100280  0.48773886  0.20867283    -0.20200
F1734       F  0.36081117  0.01753823  0.04560884    -0.20300
F1735       F  0.38010741  0.55537635  0.06260212    -0.20600
F1736       F  0.33091358  0.54600866  0.07060391    -0.23300
C1737       C  0.02444223  0.64441723  0.36986664    -0.06100
C1738       C  0.99810757  0.64840697  0.35246652    -0.00200
C1739       C  0.46814824  0.63864187  0.36736881    -0.08800
C1740       C  0.46953548  0.61644861  0.39058953    -0.06100
C1741       C  0.00126809  0.60193056  0.39720269    -0.00200
C1742       C  0.02670253  0.62102504  0.39180288    -0.08700
C1743       C  0.05643297  0.61589018  0.40828443     0.61700
H1744       H  0.04362507  0.65924337  0.36540108     0.12400
H1745       H  0.44890568  0.60782617  0.40098600     0.12400
C1746       C  0.43776415  0.65033215  0.35615557     0.61900
F1747       F  0.07825669  0.63716300  0.40007861    -0.23200
F1748       F  0.06740265  0.58711898  0.40155001    -0.20600
F1749       F  0.05176540  0.61811590  0.43924535    -0.20200
F1750       F  0.43537399  0.64556285  0.32504284    -0.20300
F1751       F  0.43545639  0.68120178  0.36203160    -0.20600
F1752       F  0.41370912  0.63565175  0.37031006    -0.23300
C1753       C  0.02675181  0.89020842  0.38205931    -0.06100
C1754       C  0.99925734  0.90095409  0.39406288    -0.00200
C1755       C  0.47233731  0.88714985  0.38428618    -0.08800
C1756       C  0.47350334  0.86356829  0.36243442    -0.06100
C1757       C  0.99972501  0.85424500  0.34975415    -0.00200
C1758       C  0.02746631  0.86675136  0.36011090    -0.08700
C1759       C  0.05756899  0.85541833  0.34764890     0.61700
H1760       H  0.04765481  0.90058916  0.38971644     0.12400
H1761       H  0.45275843  0.85322648  0.35414598     0.12400
C1762       C  0.44193416  0.89885412  0.39549037     0.61900
F1763       F  0.08198146  0.86874383  0.36236797    -0.23200
F1764       F  0.05954826  0.86228400  0.31687491    -0.20600
F1765       F  0.05970158  0.82415160  0.35148010    -0.20200
F1766       F  0.43916759  0.92946707  0.38825964    -0.20300
F1767       F  0.43989385  0.89531367  0.42678649    -0.20600
F1768       F  0.41792257  0.88336380  0.38226561    -0.23300
C1769       C  0.02135884  0.87254400  0.09706265    -0.06100
C1770       C  0.99982425  0.89588563  0.09974020    -0.00200
C1771       C  0.47800217  0.89515211  0.12592446    -0.08800
C1772       C  0.47951172  0.87163548  0.14773223    -0.06100
C1773       C  0.00359647  0.84942175  0.14443785    -0.00200
C1774       C  0.02396882  0.84946184  0.11930356    -0.08700
C1775       C  0.04823972  0.82536968  0.11571931     0.61700
H1776       H  0.03646179  0.87279225  0.07751394     0.12400
H1777       H  0.46343722  0.87095904  0.16647090     0.12400
C1778       C  0.45372902  0.91916148  0.12896714     0.61900
F1779       F  0.06888882  0.83292247  0.09303393    -0.23200
F1780       F  0.03447815  0.79816833  0.10799779    -0.20600
F1781       F  0.06418080  0.82184535  0.14266617    -0.20200
F1782       F  0.43897338  0.92335520  0.10140755    -0.20300
F1783       F  0.46735672  0.94604222  0.13802730    -0.20600
F1784       F  0.43215123  0.91097164  0.15045905    -0.23300
C1785       C  0.47634754  0.62645920  0.14568052    -0.06100
C1786       C  0.00304566  0.64614397  0.14894989    -0.00200
C1787       C  0.02576101  0.64509648  0.12599115    -0.08800
C1788       C  0.02440561  0.62187238  0.10381802    -0.06100
C1789       C  0.00119932  0.59991313  0.10388681    -0.00200
C1790       C  0.47533273  0.60367370  0.12304347    -0.08700
C1791       C  0.44616333  0.58601517  0.11761889     0.61700
H1792       H  0.45658380  0.63093178  0.15970784     0.12400
H1793       H  0.04157340  0.62063885  0.08613465     0.12400
C1794       C  0.05164323  0.66803201  0.12522283     0.61900
F1795       F  0.42259708  0.59667098  0.13555465    -0.23200
F1796       F  0.45059527  0.55556314  0.12441977    -0.20600
F1797       F  0.43748117  0.58874141  0.08742294    -0.20200
F1798       F  0.06562519  0.66919821  0.15347754    -0.20300
F1799       F  0.04059175  0.69661104  0.11783588    -0.20600
F1800       F  0.07339817  0.66037514  0.10374080    -0.23300
O1801       O  0.00129794  0.54842248  0.58806726    -0.80500
O1802       O  0.99768312  0.55127637  0.91222100    -0.82000
O1803       O  0.05289832  0.58514280  0.50167487    -0.79000
O1804       O  0.45080501  0.58767828  0.50206911    -0.77400
O1805       O  0.41413878  0.55099810  0.50171034    -0.79200
O1806       O  0.08874130  0.54773443  0.50077640    -0.80100
O1807       O  0.00112739  0.58720812  0.94997449    -0.81500
O1808       O  0.00266977  0.58595804  0.55153792    -0.81800
Eu1809     Eu  0.00182624  0.56175125  0.50039829     2.39200
O1810       O  0.47002733  0.53184841  0.96994864    -0.89300
O1811       O  0.03174197  0.52974351  0.53135339    -0.92900
C1812       C  0.00198428  0.57663341  0.57961570     1.01800
C1813       C  0.99919178  0.57912990  0.92166253     1.01600
C1814       C  0.08082704  0.57602894  0.50174086     1.01600
C1815       C  0.42282585  0.57915835  0.50247690     0.99400
H1816       H  0.04438701  0.54315262  0.95562294     0.29200
O1817       O  0.03147749  0.53047804  0.96819777    -1.01700
H1818       H  0.45675597  0.54340911  0.54448144     0.29200
O1819       O  0.46930072  0.53085924  0.53150351    -1.04200
O1820       O  0.99842733  0.95176197  0.91024701    -0.81400
O1821       O  0.99990802  0.94804260  0.58416470    -0.81000
O1822       O  0.08590783  0.49768202  0.94833484    -0.79400
O1823       O  0.41271831  0.50225583  0.95114368    -0.82700
O1824       O  0.41246009  0.50088899  0.54932300    -0.80600
O1825       O  0.08719096  0.49644578  0.54979148    -0.79200
O1826       O  0.04972663  0.91319519  0.49699354    -0.80800
O1827       O  0.45036717  0.91356633  0.50142439    -0.82700
O1828       O  0.08623413  0.95023319  0.49869483    -0.79400
O1829       O  0.41425426  0.95071068  0.50340200    -0.82100
O1830       O  0.04902150  0.50085638  0.91164531    -0.77800
O1831       O  0.05067563  0.49819110  0.58707862    -0.77900
O1832       O  0.44862056  0.50012028  0.58646354    -0.77500
O1833       O  0.44854837  0.50066303  0.91352089    -0.81000
O1834       O  0.99780620  0.91430794  0.94682047    -0.80400
O1835       O  0.00085844  0.91179856  0.54663763    -0.78800
Eu1836     Eu  0.99910131  0.50086758  0.93699595     2.39800
Eu1837     Eu  0.00048395  0.49872736  0.56227308     2.39600
Eu1838     Eu  0.06179823  0.49856412  0.49992369     2.38400
Eu1839     Eu  0.43848001  0.50060026  0.50007516     2.39900
Eu1840     Eu  0.99986329  0.93857896  0.49738398     2.39800
O1841       O  0.47028440  0.96823487  0.53109191    -0.93200
O1842       O  0.02915201  0.96928399  0.96730298    -0.92100
C1843       C  0.99792549  0.92353531  0.91877313     1.02000
C1844       C  0.00032926  0.92010233  0.57489226     1.00700
C1845       C  0.07695366  0.49904296  0.92033877     1.00100
C1846       C  0.42061497  0.50122624  0.92284362     1.02100
C1847       C  0.42061946  0.50124190  0.57749496     1.01000
C1848       C  0.07853918  0.49714325  0.57793810     0.99900
C1849       C  0.07767502  0.92201623  0.49772030     0.99900
C1850       C  0.42248783  0.92252250  0.50317752     1.02500
H1851       H  0.04307501  0.95589072  0.54147132     0.29900
O1852       O  0.03042222  0.96896453  0.52910958    -1.05300
H1853       H  0.45506229  0.95796235  0.95655831     0.32000
O1854       O  0.46841594  0.97012420  0.96907653    -1.07900
O1855       O  0.00244112  0.69858573  0.66285030    -0.80500
O1856       O  0.99843239  0.70092837  0.83637465    -0.82000
O1857       O  0.05079607  0.66451685  0.75246644    -0.79000
O1858       O  0.44844407  0.66295367  0.74962157    -0.77400
O1859       O  0.41294556  0.70056161  0.74813170    -0.79200
O1860       O  0.08722669  0.70179842  0.75422402    -0.80100
O1861       O  0.99753887  0.66336468  0.80007926    -0.81500
O1862       O  0.00219019  0.66215182  0.70040652    -0.81800
Eu1863     Eu  0.99995592  0.68831539  0.75009139     2.39200
O1864       O  0.46820311  0.71935157  0.78092114    -0.89300
O1865       O  0.03162778  0.71949313  0.72001400    -0.92900
C1866       C  0.00289905  0.67063792  0.67215188     1.01800
C1867       C  0.99743937  0.67262832  0.82798608     1.01600
C1868       C  0.07871703  0.67354207  0.75419263     1.01600
C1869       C  0.42058139  0.67230787  0.74856314     0.99400
H1870       H  0.04264582  0.70780727  0.79479182     0.29200
O1871       O  0.03023273  0.72007478  0.78138213    -1.01700
H1872       H  0.45678203  0.70541028  0.70635333     0.29200
O1873       O  0.46914146  0.71818172  0.71931810    -1.04200
O1874       O  0.99847347  0.80258559  0.83465671    -0.81400
O1875       O  0.00310793  0.79750176  0.65989822    -0.81000
O1876       O  0.08490012  0.75535425  0.80177296    -0.79400
O1877       O  0.41302619  0.74759782  0.80000429    -0.82700
O1878       O  0.41478812  0.74988406  0.69808149    -0.80600
O1879       O  0.08855189  0.74949012  0.70301628    -0.79200
O1880       O  0.04775941  0.83950900  0.74720484    -0.80800
O1881       O  0.44783320  0.83686803  0.74741111    -0.82700
O1882       O  0.08492310  0.80319945  0.74998673    -0.79400
O1883       O  0.41155159  0.79962131  0.74793401    -0.82100
O1884       O  0.04766140  0.75252217  0.83749066    -0.77800
O1885       O  0.05286935  0.74675287  0.66568448    -0.77900
O1886       O  0.45220294  0.74833712  0.66187935    -0.77500
O1887       O  0.44927003  0.74924170  0.83702832    -0.81000
O1888       O  0.99910428  0.83890503  0.79690871    -0.80400
O1889       O  0.00063475  0.83552726  0.69547088    -0.78800
Eu1890     Eu  0.99884544  0.75157825  0.81084450     2.39800
Eu1891     Eu  0.00130879  0.74899039  0.68731531     2.39600
Eu1892     Eu  0.06129346  0.75177494  0.75120413     2.38400
Eu1893     Eu  0.43793144  0.75008413  0.74924909     2.39900
Eu1894     Eu  0.99879264  0.81288630  0.74720162     2.39800
O1895       O  0.46934284  0.78009228  0.71793452    -0.93200
O1896       O  0.02930014  0.78318064  0.78007746    -0.92100
C1897       C  0.99906483  0.83054178  0.82518953     1.02000
C1898       C  0.00248061  0.82579607  0.66763149     1.00700
C1899       C  0.07575141  0.75464315  0.82979134     1.00100
C1900       C  0.42155778  0.74749846  0.82831069     1.02100
C1901       C  0.42411975  0.74940952  0.67008810     1.01000
C1902       C  0.08074211  0.74733859  0.67489076     0.99900
C1903       C  0.07578432  0.83121639  0.74826318     0.99900
C1904       C  0.41980513  0.82788591  0.74718165     1.02500
H1905       H  0.04392848  0.79366991  0.70537578     0.29900
O1906       O  0.03097474  0.78131049  0.71816103    -1.05300
H1907       H  0.45462896  0.79446237  0.79287482     0.32000
O1908       O  0.46762417  0.78179005  0.78044756    -1.07900
O1909       O  0.33541164  0.00109977  0.70116485    -0.80500
O1910       O  0.16285251  0.00049177  0.69732218    -0.82000
O1911       O  0.25211228  0.95041776  0.66316885    -0.79000
O1912       O  0.24751696  0.54980871  0.66279281    -0.77400
O1913       O  0.24578800  0.58694073  0.69960009    -0.79200
O1914       O  0.25040600  0.91384860  0.70071438    -0.80100
O1915       O  0.19992197  0.99867095  0.66064838    -0.81500
O1916       O  0.30022889  0.00084890  0.66313105    -0.81800
Eu1917     Eu  0.24942622  0.00117382  0.68728708     2.39200
O1918       O  0.21814865  0.53065008  0.71839904    -0.89300
O1919       O  0.27935034  0.97035694  0.71953801    -0.92900
C1920       C  0.32798433  0.00068753  0.67276198     1.01800
C1921       C  0.17183793  0.99892149  0.66925300     1.01600
C1922       C  0.25190619  0.92242029  0.67252346     1.01600
C1923       C  0.24617741  0.57787109  0.67159325     0.99400
H1924       H  0.20647875  0.95683083  0.70559015     0.29200
O1925       O  0.21879295  0.96975451  0.71839379    -1.01700
H1926       H  0.29203027  0.54374808  0.70620485     0.29200
O1927       O  0.27942947  0.53106000  0.71903238    -1.04200
O1928       O  0.16155326  0.99797859  0.79794393    -0.81400
O1929       O  0.33371839  0.00314115  0.80121535    -0.81000
O1930       O  0.19832826  0.91448429  0.75033463    -0.79400
O1931       O  0.19836078  0.58743486  0.75285485    -0.82700
O1932       O  0.29933752  0.58619066  0.74742731    -0.80600
O1933       O  0.29963773  0.91452396  0.75041442    -0.79200
O1934       O  0.24740892  0.95126144  0.83842108    -0.80800
O1935       O  0.24897747  0.55097571  0.83704093    -0.82700
O1936       O  0.24779110  0.91408760  0.80164906    -0.79400
O1937       O  0.25031486  0.58767181  0.79982606    -0.82100
O1938       O  0.16161261  0.95127849  0.74783079    -0.77800
O1939       O  0.33569227  0.95194317  0.75014347    -0.77900
O1940       O  0.33557529  0.54927569  0.74976009    -0.77500
O1941       O  0.16252185  0.54971172  0.75196602    -0.81000
O1942       O  0.19693506  0.99849114  0.83611786    -0.80400
O1943       O  0.29745125  0.00356635  0.83834182    -0.78800
Eu1944     Eu  0.18718301  0.00093385  0.74823931     2.39800
Eu1945     Eu  0.30953046  0.00137855  0.75073820     2.39600
Eu1946     Eu  0.24890627  0.93894679  0.75073278     2.38400
Eu1947     Eu  0.24839503  0.56209674  0.74985163     2.39900
Eu1948     Eu  0.24760680  0.00125722  0.81236978     2.39800
O1949       O  0.27897103  0.53127882  0.78124003    -0.93200
O1950       O  0.21753989  0.97045936  0.78035948    -0.92100
C1951       C  0.16929722  0.99779950  0.82633077     1.02000
C1952       C  0.32546878  0.00421792  0.82943457     1.00700
C1953       C  0.17035299  0.92324681  0.74933773     1.00100
C1954       C  0.17053646  0.57805693  0.75311934     1.02100
C1955       C  0.32738922  0.57734567  0.74776198     1.01000
C1956       C  0.32759238  0.92367194  0.75025325     0.99900
C1957       C  0.24749691  0.92309363  0.82977457     0.99900
C1958       C  0.25023614  0.57908647  0.82804701     1.02500
H1959       H  0.29197172  0.95758802  0.79507143     0.29900
O1960       O  0.27922049  0.97008082  0.78214579    -1.05300
H1961       H  0.20497365  0.54309780  0.79323862     0.32000
O1962       O  0.21764579  0.53047825  0.78047180    -1.07900
O1963       O  0.20153856  0.66190142  0.00113184    -0.80500
O1964       O  0.20110632  0.83745530  0.00026642    -0.82000
O1965       O  0.16394435  0.74862551  0.55032158    -0.79000
O1966       O  0.16296877  0.75165829  0.95033968    -0.77400
O1967       O  0.19998382  0.75375999  0.91426824    -0.79200
O1968       O  0.19987000  0.74799419  0.58743899    -0.80100
O1969       O  0.16429026  0.80081553  0.99971142    -0.81500
O1970       O  0.16537631  0.69894060  0.00122419    -0.81800
Eu1971     Eu  0.18888462  0.75014717  0.00012522     2.39200
O1972       O  0.21992911  0.78137099  0.96978470    -0.89300
O1973       O  0.21916889  0.72022111  0.53132298    -0.92900
C1974       C  0.17362524  0.67068485  0.00108098     1.01800
C1975       C  0.17308855  0.82900908  0.99989302     1.01600
C1976       C  0.17195022  0.74748583  0.57844965     1.01600
C1977       C  0.17185131  0.75337381  0.92224321     0.99400
H1978       H  0.20733607  0.79469700  0.54563796     0.29200
O1979       O  0.21986557  0.78209586  0.53273646    -0.99300
H1980       H  0.20673029  0.70605910  0.95661095     0.29200
O1981       O  0.21940236  0.71872230  0.96936653    -1.04200
O1982       O  0.30065423  0.83726501  0.00036963    -0.81400
O1983       O  0.30035099  0.66327773  0.00275805    -0.81000
O1984       O  0.25031347  0.79907074  0.58945520    -0.79400
O1985       O  0.24934076  0.80090145  0.91351071    -0.82700
O1986       O  0.25019890  0.69946864  0.91398934    -0.80600
O1987       O  0.24740006  0.69922623  0.58805387    -0.79200
O1988       O  0.33732274  0.74974111  0.55071101    -0.80800
O1989       O  0.33612762  0.74941639  0.94927128    -0.82700
O1990       O  0.30058625  0.75006880  0.58761283    -0.79400
O1991       O  0.29908824  0.74941496  0.91286455    -0.82100
O1992       O  0.25264794  0.83677566  0.55326663    -0.77800
O1993       O  0.24610645  0.66291519  0.55047489    -0.77900
O1994       O  0.25140061  0.66289848  0.95134176    -0.77500
O1995       O  0.24954664  0.83759759  0.95076436    -0.81000
O1996       O  0.33713805  0.80029480  0.00112475    -0.80400
O1997       O  0.33715271  0.69979367  0.00123530    -0.78800
Eu1998     Eu  0.25082456  0.81217707  0.00082008     2.39800
Eu1999     Eu  0.25050773  0.68826212  0.00115911     2.39600
Eu2000     Eu  0.25020968  0.74972971  0.56312776     2.38400
Eu2001     Eu  0.25008476  0.75029531  0.93867757     2.39900
Eu2002     Eu  0.31228117  0.75007747  0.00062605     2.39800
O2003       O  0.28098588  0.71940523  0.96987782    -0.93200
O2004       O  0.28164224  0.78050039  0.53230392    -0.92100
C2005       C  0.32858844  0.82843444  0.00059182     1.02000
C2006       C  0.32838508  0.67163570  0.00210318     1.00700
C2007       C  0.25139193  0.82731762  0.58125193     1.00100
C2008       C  0.24893331  0.82895249  0.92263049     1.02100
C2009       C  0.25070302  0.67135999  0.92314567     1.01000
C2010       C  0.24574732  0.67132132  0.57871883     0.99900
C2011       C  0.32859039  0.74982628  0.57889805     0.99900
C2012       C  0.32707644  0.74941472  0.92111134     1.02500
H2013       H  0.29307716  0.70541557  0.54475723     0.29900
O2014       O  0.28074831  0.71847675  0.53204880    -1.05300
H2015       H  0.29401945  0.79388301  0.95663333     0.32000
O2016       O  0.28142859  0.78115715  0.96950858    -1.07900
C2017       C  0.21840882  0.61065641  0.63495525    -0.06100
C2018       C  0.24612152  0.60152033  0.64771183    -0.00200
C2019       C  0.27349074  0.61483677  0.63746245    -0.08800
C2020       C  0.27230738  0.63676455  0.61407745    -0.06100
C2021       C  0.24466707  0.64702056  0.60215723    -0.00200
C2022       C  0.21716066  0.63366577  0.61242128    -0.08700
C2023       C  0.18672586  0.64410550  0.60019084     0.61700
H2024       H  0.19774168  0.60012559  0.64331705     0.12400
H2025       H  0.29303802  0.64613141  0.60495269     0.12400
C2026       C  0.30365068  0.60640283  0.65188144     0.61900
F2027       F  0.16335081  0.62515718  0.60968956    -0.23200
F2028       F  0.18708760  0.64410409  0.56869094    -0.20600
F2029       F  0.18081520  0.67333843  0.61035374    -0.20200
F2030       F  0.30815688  0.57524639  0.65012910    -0.20300
F2031       F  0.30355825  0.61509643  0.68222968    -0.20600
F2032       F  0.32779205  0.62071772  0.63752466    -0.23300
C2033       C  0.23046739  0.87534275  0.65061648    -0.06100
C2034       C  0.25290250  0.89804593  0.64931139    -0.00200
C2035       C  0.27592912  0.89639714  0.62679625    -0.08800
C2036       C  0.27432974  0.87309960  0.60477898    -0.06100
C2037       C  0.25154149  0.85067251  0.60566732    -0.00200
C2038       C  0.22948123  0.85133146  0.62934804    -0.08700
C2039       C  0.20463600  0.82731100  0.63199980     0.61700
H2040       H  0.21352200  0.87672153  0.66850893     0.12400
H2041       H  0.29118503  0.87208506  0.58676039     0.12400
C2042       C  0.30241322  0.91862686  0.62606650     0.61900
F2043       F  0.18378540  0.83445138  0.65456635    -0.23200
F2044       F  0.21722889  0.79935622  0.63926391    -0.20600
F2045       F  0.18911098  0.82489994  0.60471850    -0.20200
F2046       F  0.31260464  0.92479068  0.65529668    -0.20300
F2047       F  0.29342538  0.94552566  0.61225765    -0.20600
F2048       F  0.32665752  0.90672393  0.60989343    -0.23300
C2049       C  0.22068850  0.88942050  0.86708205    -0.06100
C2050       C  0.24812905  0.89934973  0.85395872    -0.00200
C2051       C  0.27587806  0.88704836  0.86456757    -0.08800
C2052       C  0.27522332  0.86404633  0.88706405    -0.06100
C2053       C  0.24780796  0.85319559  0.89915972    -0.00200
C2054       C  0.22008487  0.86643900  0.88974236    -0.08700
C2055       C  0.19026458  0.85643586  0.90408938     0.61700
H2056       H  0.19978950  0.89994068  0.85964616     0.12400
H2057       H  0.29619544  0.85454651  0.89565346     0.12400
C2058       C  0.30602413  0.89860987  0.85238349     0.61900
F2059       F  0.16575904  0.87195436  0.89192194    -0.23200
F2060       F  0.19095332  0.86196164  0.93516988    -0.20600
F2061       F  0.18585510  0.82555633  0.89929901    -0.20200
F2062       F  0.30821377  0.92971376  0.85709589    -0.20300
F2063       F  0.30804467  0.89271572  0.82144488    -0.20600
F2064       F  0.33038003  0.88479064  0.86675640    -0.23300
C2065       C  0.23155033  0.59990153  0.87718005    -0.06100
C2066       C  0.25112864  0.60309911  0.85204646    -0.00200
C2067       C  0.27124609  0.62844299  0.85089856    -0.08800
C2068       C  0.27036460  0.65010603  0.87461778    -0.06100
C2069       C  0.25055333  0.64705032  0.89954306    -0.00200
C2070       C  0.23080530  0.62143986  0.90101224    -0.08700
C2071       C  0.20854965  0.61699716  0.92721316     0.61700
H2072       H  0.21654921  0.58031229  0.87789187     0.12400
H2073       H  0.28526441  0.66977997  0.87387103     0.12400
C2074       C  0.29362573  0.63281879  0.82489473     0.61900
F2075       F  0.18794949  0.59388759  0.92127014    -0.23200
F2076       F  0.19226638  0.64352542  0.93205387    -0.20600
F2077       F  0.22418155  0.60935407  0.95349468    -0.20200
F2078       F  0.27806942  0.64185122  0.79903514    -0.20300
F2079       F  0.30894716  0.60588372  0.81914393    -0.20600
F2080       F  0.31507805  0.65494389  0.83154634    -0.23300
C2081       C  0.40349066  0.61931213  0.73804394    -0.06100
C2082       C  0.39573063  0.64897255  0.74731261    -0.00200
C2083       C  0.36472159  0.65529595  0.75440455    -0.08800
C2084       C  0.34374864  0.63109538  0.75441904    -0.06100
C2085       C  0.35170295  0.60123874  0.74624660    -0.00200
C2086       C  0.38201074  0.59557058  0.73638437    -0.08700
C2087       C  0.39184830  0.56528134  0.72281153     0.61700
H2088       H  0.42674541  0.61484147  0.73148716     0.12400
H2089       H  0.32048530  0.63552438  0.76065486     0.12400
C2090       C  0.35298698  0.68717328  0.76160746     0.61900
F2091       F  0.42064145  0.56673070  0.71031497    -0.23200
F2092       F  0.37202903  0.55690921  0.69982110    -0.20600
F2093       F  0.39245953  0.54315656  0.74520324    -0.20200
F2094       F  0.35702486  0.70594774  0.73646786    -0.20300
F2095       F  0.36811182  0.69896279  0.78659765    -0.20600
F2096       F  0.32230801  0.68729464  0.76842857    -0.23300
C2097       C  0.40134208  0.87894102  0.76344432    -0.06100
C2098       C  0.39563403  0.85194965  0.74708564    -0.00200
C2099       C  0.36740923  0.84891443  0.73155398    -0.08800
C2100       C  0.34633989  0.87310550  0.73292059    -0.06100
C2101       C  0.35193274  0.89989620  0.74958146    -0.00200
C2102       C  0.37992281  0.90275923  0.76549021    -0.08700
C2103       C  0.38700512  0.93010999  0.78561164     0.61700
H2104       H  0.42276248  0.88099882  0.77534235     0.12400
H2105       H  0.32489697  0.87111910  0.72104619     0.12400
C2106       C  0.35901064  0.82041546  0.71369582     0.61900
F2107       F  0.41297412  0.92565026  0.80281270    -0.23200
F2108       F  0.36328294  0.93520384  0.80568491    -0.20600
F2109       F  0.39153782  0.95571089  0.76768553    -0.20200
F2110       F  0.35343309  0.79667400  0.73379996    -0.20300
F2111       F  0.38226657  0.81249786  0.69402828    -0.20600
F2112       F  0.33313853  0.82467934  0.69627924    -0.23300
C2113       C  0.10000093  0.62523911  0.73462372    -0.06100
C2114       C  0.10246331  0.64936266  0.75540927    -0.00200
C2115       C  0.12649913  0.64905267  0.77699947    -0.08800
C2116       C  0.14814919  0.62527785  0.77583492    -0.06100
C2117       C  0.14601847  0.60153016  0.75442488    -0.00200
C2118       C  0.12121881  0.60130313  0.73383499    -0.08700
C2119       C  0.11854377  0.57714406  0.70946406     0.61700
H2120       H  0.08141749  0.62562169  0.71846374     0.12400
H2121       H  0.16700847  0.62508818  0.79166955     0.12400
C2122       C  0.12903287  0.67331889  0.80148616     0.61900
F2123       F  0.11324381  0.54887936  0.72254425    -0.23200
F2124       F  0.14538858  0.57674944  0.69311605    -0.20600
F2125       F  0.09492999  0.58298325  0.68956103    -0.20200
F2126       F  0.10133941  0.67712055  0.81591025    -0.20300
F2127       F  0.13788792  0.70055710  0.78826268    -0.20600
F2128       F  0.15016067  0.66555492  0.82354232    -0.23300
C2129       C  0.12147637  0.85471507  0.77105281    -0.06100
C2130       C  0.09926401  0.85554244  0.74812594    -0.00200
C2131       C  0.10018633  0.87912938  0.72582895    -0.08800
C2132       C  0.12363686  0.90092914  0.72729528    -0.06100
C2133       C  0.14632503  0.89954337  0.74969954    -0.00200
C2134       C  0.14485173  0.87659222  0.77249320    -0.08700
C2135       C  0.16675713  0.87631089  0.79920393     0.61700
H2136       H  0.12010950  0.83687786  0.78816886     0.12400
H2137       H  0.12456293  0.91923723  0.71072232     0.12400
C2138       C  0.07747610  0.88059781  0.69978303     0.61900
F2139       F  0.15878623  0.85475094  0.82093710    -0.23200
F2140       F  0.16668815  0.90465040  0.81308435    -0.20600
F2141       F  0.19571400  0.86960931  0.78913924    -0.20200
F2142       F  0.04883872  0.88692041  0.71097219    -0.20300
F2143       F  0.07700311  0.85296285  0.68464611    -0.20600
F2144       F  0.08483433  0.90307499  0.67873479    -0.23300
C2145       C  0.37483293  0.73144577  0.65037816    -0.06100
C2146       C  0.40058351  0.74973972  0.64589570    -0.00200
C2147       C  0.40257052  0.76838600  0.61940186    -0.08800
C2148       C  0.37839393  0.76800197  0.59835230    -0.06100
C2149       C  0.35258367  0.74964517  0.60283990    -0.00200
C2150       C  0.35096083  0.73069167  0.62915027    -0.08700
C2151       C  0.32527189  0.70812150  0.63378616     0.61700
H2152       H  0.37379341  0.71721779  0.67061936     0.12400
H2153       H  0.37950607  0.78209303  0.57802653     0.12400
C2154       C  0.42969957  0.78904041  0.61351509     0.61900
F2155       F  0.33068422  0.68840320  0.65792452    -0.23200
F2156       F  0.32221525  0.69089836  0.60761448    -0.20600
F2157       F  0.29848681  0.72336949  0.63975930    -0.20200
F2158       F  0.45478623  0.77153269  0.60629961    -0.20300
F2159       F  0.43582121  0.80633856  0.63917689    -0.20600
F2160       F  0.42455596  0.80895951  0.58950176    -0.23300
C2161       C  0.09581057  0.75006737  0.62066519    -0.06100
C2162       C  0.10502031  0.74600600  0.65109651    -0.00200
C2163       C  0.13633761  0.74057667  0.65722983    -0.08800
C2164       C  0.15685883  0.74086302  0.63263663    -0.06100
C2165       C  0.14766690  0.74577671  0.60227131    -0.00200
C2166       C  0.11609655  0.74921764  0.59604175    -0.08700
C2167       C  0.10293789  0.75094442  0.56391800     0.61700
H2168       H  0.07205787  0.75387945  0.61603008     0.12400
H2169       H  0.18069029  0.73725312  0.63717216     0.12400
C2170       C  0.14879711  0.73439986  0.68912017     0.61900
F2171       F  0.07158366  0.75304503  0.56392834    -0.23200
F2172       F  0.11043325  0.72464641  0.54826966    -0.20600
F2173       F  0.11394021  0.77633981  0.54867897    -0.20200
F2174       F  0.13408224  0.70959430  0.70198018    -0.20300
F2175       F  0.14499834  0.75986270  0.70732804    -0.20600
F2176       F  0.17952954  0.72779028  0.68872015    -0.23300
C2177       C  0.11770011  0.76006819  0.90680616    -0.06100
C2178       C  0.14797199  0.75490482  0.89773642    -0.00200
C2179       C  0.15408642  0.75055875  0.86603196    -0.08800
C2180       C  0.12986586  0.75180801  0.84521105    -0.06100
C2181       C  0.09951024  0.75570676  0.85433569    -0.00200
C2182       C  0.09327544  0.76010300  0.88599051    -0.08700
C2183       C  0.06126542  0.76461731  0.89837093     0.61700
H2184       H  0.11306057  0.76359910  0.93080176     0.12400
H2185       H  0.13469292  0.74913210  0.82118154     0.12400
C2186       C  0.18564390  0.74372938  0.85356053     0.61900
F2187       F  0.06108554  0.77074476  0.92935861    -0.23200
F2188       F  0.04440279  0.73832697  0.89398478    -0.20600
F2189       F  0.04750583  0.78900127  0.88381470    -0.20200
F2190       F  0.18535152  0.73732614  0.82260701    -0.20300
F2191       F  0.20438268  0.76872082  0.85779420    -0.20600
F2192       F  0.19752197  0.71840278  0.86816155    -0.23300
C2193       C  0.37025745  0.76114246  0.84599544    -0.06100
C2194       C  0.39778219  0.74657588  0.85245925    -0.00200
C2195       C  0.40182357  0.73248932  0.88155707    -0.08800
C2196       C  0.37801830  0.73398342  0.90295375    -0.06100
C2197       C  0.35056453  0.74888187  0.89657846    -0.00200
C2198       C  0.34657615  0.76280477  0.86741276    -0.08700
C2199       C  0.31799803  0.78006451  0.85859128     0.61700
H2200       H  0.36755215  0.77176720  0.82382074     0.12400
H2201       H  0.38064788  0.72322592  0.92507261     0.12400
C2202       C  0.43045810  0.71505596  0.89011766     0.61900
F2203       F  0.32157785  0.79613909  0.83153576    -0.23200
F2204       F  0.31074929  0.80088132  0.88106471    -0.20600
F2205       F  0.29428328  0.75976908  0.85466769    -0.20200
F2206       F  0.45485323  0.73478290  0.89225742    -0.20300
F2207       F  0.43632758  0.69307767  0.86834883    -0.20600
F2208       F  0.42769815  0.70040905  0.91804813    -0.23300
C2209       C  0.34838657  0.87817370  0.51558721    -0.06100
C2210       C  0.35511918  0.85036756  0.50112257    -0.00200
C2211       C  0.38055637  0.84915106  0.98534716    -0.08800
C2212       C  0.40233031  0.87236875  0.98818861    -0.06100
C2213       C  0.39851113  0.89843681  0.50376367    -0.00200
C2214       C  0.36951772  0.90218764  0.51757843    -0.08700
C2215       C  0.36077326  0.93069234  0.53529943     0.61700
H2216       H  0.32618875  0.88089584  0.52582489     0.12400
H2217       H  0.42442221  0.86914043  0.97793369     0.12400
C2218       C  0.38721871  0.82234539  0.96437347     0.61900
F2219       F  0.33337842  0.92720175  0.55041840    -0.23200
F2220       F  0.35569453  0.95692601  0.01072318    -0.20600
F2221       F  0.38266855  0.93709613  0.55697240    -0.20200
F2222       F  0.36268643  0.81707798  0.94539705    -0.20300
F2223       F  0.39483187  0.79299249  0.49206886    -0.20600
F2224       F  0.41212676  0.82797743  0.94587072    -0.23300
C2225       C  0.37890647  0.65383806  0.51379304    -0.06100
C2226       C  0.35040326  0.64617061  0.50153734    -0.00200
C2227       C  0.34788754  0.61723742  0.99187563    -0.08800
C2228       C  0.37233371  0.59666246  0.99273041    -0.06100
C2229       C  0.39867908  0.60305083  0.50326105    -0.00200
C2230       C  0.40298697  0.63282504  0.51545171    -0.08700
C2231       C  0.43220816  0.64251212  0.53122800     0.61700
H2232       H  0.38219920  0.67668913  0.52253335     0.12400
H2233       H  0.36875259  0.57354295  0.98489349     0.12400
C2234       C  0.31786387  0.60638142  0.97858081     0.61900
F2235       F  0.42921771  0.67037244  0.54579797    -0.23200
F2236       F  0.45649422  0.64782852  0.99652777    -0.20600
F2237       F  0.44005235  0.62118740  0.55316323    -0.20200
F2238       F  0.30867577  0.62603595  0.95563489    -0.20300
F2239       F  0.29368981  0.60467643  0.50043381    -0.20600
F2240       F  0.32005306  0.57752515  0.96593337    -0.23300
C2241       C  0.12762434  0.90281986  0.01122982    -0.06100
C2242       C  0.10191328  0.89829205  0.49813636    -0.00200
C2243       C  0.10123411  0.87179524  0.47950898    -0.08800
C2244       C  0.12544966  0.85089967  0.48126349    -0.06100
C2245       C  0.15045052  0.85561954  0.50057008    -0.00200
C2246       C  0.15204248  0.88219453  0.01301990    -0.08700
C2247       C  0.18029628  0.89165477  0.03059517     0.61700
H2248       H  0.12946972  0.92479731  0.02232407     0.12400
H2249       H  0.12503815  0.83048186  0.46736081     0.12400
C2250       C  0.07547535  0.86564483  0.45739809     0.61900
F2251       F  0.17662301  0.91946872  0.04511442    -0.23200
F2252       F  0.20458413  0.89457086  0.01077656    -0.20600
F2253       F  0.18686371  0.87011297  0.05273412    -0.20200
F2254       F  0.06944070  0.89161144  0.44056135    -0.20300
F2255       F  0.04979828  0.85709899  0.47346044    -0.20600
F2256       F  0.08249433  0.84251209  0.43707522    -0.23300
C2257       C  0.15603065  0.61973972  0.51134306    -0.06100
C2258       C  0.14811046  0.64875358  0.50000993    -0.00200
C2259       C  0.11957760  0.65150030  0.99053952    -0.08800
C2260       C  0.09844633  0.62761067  0.99264552    -0.06100
C2261       C  0.10509675  0.60009900  0.50208633    -0.00200
C2262       C  0.13539517  0.59516949  0.51231968    -0.08700
C2263       C  0.14644408  0.56462998  0.52465775     0.61700
H2264       H  0.17902924  0.61615891  0.51910243     0.12400
H2265       H  0.07530758  0.63198316  0.98621197     0.12400
C2266       C  0.10950632  0.68145149  0.97612829     0.61900
F2267       F  0.17696124  0.56270853  0.03443999    -0.23200
F2268       F  0.14623591  0.54016286  0.00093688    -0.20600
F2269       F  0.12694302  0.55400061  0.54699683    -0.20200
F2270       F  0.12938933  0.68966443  0.95304014    -0.20300
F2271       F  0.10700294  0.70627246  0.49009176    -0.20600
F2272       F  0.08187961  0.67808049  0.45608674    -0.23300
C2273       C  0.34415862  0.99143382  0.88157128    -0.06100
C2274       C  0.35114017  0.50334270  0.85238744    -0.00200
C2275       C  0.38049395  0.51624162  0.84743954    -0.08800
C2276       C  0.40207364  0.51509192  0.87112756    -0.06100
C2277       C  0.39595215  0.50118666  0.89935208    -0.00200
C2278       C  0.36628177  0.98968393  0.90477584    -0.08700
C2279       C  0.35909558  0.97122390  0.93331821     0.61700
H2280       H  0.32222792  0.98087879  0.88509968     0.12400
H2281       H  0.42426687  0.52514752  0.86768959     0.12400
C2282       C  0.38954383  0.53126346  0.81749780     0.61900
F2283       F  0.33180172  0.45441548  0.93033131    -0.23200
F2284       F  0.35669924  0.48963572  0.95727593    -0.20600
F2285       F  0.38143537  0.94954632  0.93791139    -0.20200
F2286       F  0.36849002  0.55324604  0.80951576    -0.20300
F2287       F  0.38972746  0.01449578  0.79600276    -0.20600
F2288       F  0.41360005  0.05169360  0.82080123    -0.23300
C2289       C  0.10163581  0.52322815  0.87577324    -0.06100
C2290       C  0.10050564  0.49870739  0.89636535    -0.00200
C2291       C  0.12563637  0.97674043  0.89809578    -0.08800
C2292       C  0.14738354  0.97741025  0.87447830    -0.06100
C2293       C  0.14511913  0.50067519  0.85011138    -0.00200
C2294       C  0.12373986  0.52474541  0.85257210    -0.08700
C2295       C  0.12463425  0.55219610  0.83133634     0.61700
H2296       H  0.08521118  0.54142455  0.87832070     0.12400
H2297       H  0.16690980  0.96244860  0.87547000     0.12400
C2298       C  0.12959521  0.95449493  0.92453904     0.61900
F2299       F  0.10309503  0.57382781  0.83913097    -0.23200
F2300       F  0.11889084  0.54302405  0.80173722    -0.20600
F2301       F  0.15288669  0.56590705  0.83266641    -0.20200
F2302       F  0.10331455  0.93765350  0.92857771    -0.20300
F2303       F  0.13609597  0.97031632  0.95103803    -0.20600
F2304       F  0.15311960  0.93423566  0.91945343    -0.23300
C2305       C  0.11871177  0.97132680  0.60613846    -0.06100
C2306       C  0.10249888  0.49793003  0.60137233    -0.00200
C2307       C  0.10671941  0.52387029  0.62002707    -0.08800
C2308       C  0.12999052  0.52330453  0.64185999    -0.06100
C2309       C  0.14940680  0.49827045  0.64524116    -0.00200
C2310       C  0.14171891  0.97061679  0.62858373    -0.08700
C2311       C  0.15869281  0.94119789  0.63511659     0.61700
H2312       H  0.11383133  0.95114204  0.59274972     0.12400
H2313       H  0.13316070  0.54260448  0.65639837     0.12400
C2314       C  0.08644137  0.55188874  0.61765208     0.61900
F2315       F  0.14670526  0.91678186  0.61912636    -0.23200
F2316       F  0.16897411  0.43524413  0.65753558    -0.20600
F2317       F  0.18883160  0.94447283  0.62700201    -0.20200
F2318       F  0.05966538  0.54643736  0.63322363    -0.20300
F2319       F  0.06960950  0.05455736  0.59061875    -0.20600
F2320       F  0.10031384  0.57733970  0.63004456    -0.23300
C2321       C  0.40433656  0.99098456  0.63152355    -0.06100
C2322       C  0.39617890  0.50251377  0.60121880    -0.00200
C2323       C  0.36779320  0.51741821  0.59676624    -0.08800
C2324       C  0.34573445  0.51564620  0.62008808    -0.06100
C2325       C  0.35147106  0.50127058  0.64825555    -0.00200
C2326       C  0.38257004  0.98917388  0.65500218    -0.08700
C2327       C  0.39123310  0.97306361  0.68458434     0.61700
H2328       H  0.42679461  0.98229024  0.63554925     0.12400
H2329       H  0.32380704  0.52618524  0.61665227     0.12400
C2330       C  0.36120080  0.53693423  0.56870504     0.61900
F2331       F  0.42000763  0.96058258  0.68327338    -0.23200
F2332       F  0.37099332  0.94959833  0.69033226    -0.20600
F2333       F  0.39039441  0.49422306  0.70629072    -0.20200
F2334       F  0.35733032  0.01359686  0.54444496    -0.20300
F2335       F  0.38454895  0.55761468  0.56432201    -0.20600
F2336       F  0.33462111  0.55345522  0.57190057    -0.23300
C2337       C  0.02125414  0.64752242  0.87246606    -0.06100
C2338       C  0.99679544  0.64891021  0.85210260    -0.00200
C2339       C  0.47421397  0.62462523  0.85426177    -0.08800
C2340       C  0.47617469  0.60258591  0.87766504    -0.06100
C2341       C  0.99886029  0.60359869  0.89818774    -0.00200
C2342       C  0.02277728  0.62506793  0.89544451    -0.08700
C2343       C  0.04965899  0.62435759  0.91691289     0.61700
H2344       H  0.03932553  0.66414633  0.87007246     0.12400
H2345       H  0.46027106  0.58370662  0.87816496     0.12400
C2346       C  0.44954612  0.62160749  0.83019408     0.61900
F2347       F  0.07228062  0.64442693  0.90798141    -0.23200
F2348       F  0.06202365  0.59534790  0.91793822    -0.20600
F2349       F  0.03987354  0.63260302  0.94566538    -0.20200
F2350       F  0.46181720  0.60941195  0.80383233    -0.20300
F2351       F  0.43682327  0.64966851  0.82353416    -0.20600
F2352       F  0.42635304  0.60271016  0.84011396    -0.23300
C2353       C  0.02159387  0.89894218  0.87370670    -0.06100
C2354       C  0.99743489  0.89994077  0.89458396    -0.00200
C2355       C  0.46962788  0.88629977  0.88561148    -0.08800
C2356       C  0.47102859  0.86300499  0.86347059    -0.06100
C2357       C  0.99924470  0.85483042  0.84857893    -0.00200
C2358       C  0.02340471  0.87604767  0.85120760    -0.08700
C2359       C  0.05179472  0.87322140  0.83171088     0.61700
H2360       H  0.03963380  0.91560083  0.87593348     0.12400
H2361       H  0.45039251  0.85233351  0.85532815     0.12400
C2362       C  0.43917391  0.89729807  0.89743405     0.61900
F2363       F  0.07394991  0.89388385  0.84034743    -0.23200
F2364       F  0.04491872  0.87854422  0.80139963    -0.20600
F2365       F  0.06368778  0.84415640  0.83477313    -0.20200
F2366       F  0.43503357  0.92748467  0.88916286    -0.20300
F2367       F  0.43828560  0.89501586  0.92886900    -0.20600
F2368       F  0.41533781  0.88036797  0.88574722    -0.23300
C2369       C  0.01972330  0.87070849  0.59460436    -0.06100
C2370       C  0.00026237  0.89576138  0.59841050    -0.00200
C2371       C  0.47850086  0.89535063  0.62465246    -0.08800
C2372       C  0.47984954  0.87210930  0.64669992    -0.06100
C2373       C  0.00262960  0.84892569  0.64288729    -0.00200
C2374       C  0.02117667  0.84697358  0.61634007    -0.08700
C2375       C  0.04271118  0.82044268  0.61095827     0.61700
H2376       H  0.03395505  0.86998354  0.57443094     0.12400
H2377       H  0.46420480  0.87226014  0.66581329     0.12400
C2378       C  0.45440489  0.91979637  0.62734047     0.61900
F2379       F  0.06145194  0.82545992  0.58603128    -0.23200
F2380       F  0.02625749  0.79415530  0.60542624    -0.20600
F2381       F  0.06097097  0.81614645  0.63624010    -0.20200
F2382       F  0.43980136  0.92375035  0.59964476    -0.20300
F2383       F  0.46801967  0.94680588  0.63607631    -0.20600
F2384       F  0.43262797  0.91220785  0.64885161    -0.23300
C2385       C  0.48045754  0.62203188  0.65136535    -0.06100
C2386       C  0.00368365  0.64646576  0.64866804    -0.00200
C2387       C  0.02769494  0.64395307  0.62730216    -0.08800
C2388       C  0.02629734  0.62083545  0.60501123    -0.06100
C2389       C  0.00204873  0.60002980  0.60399605    -0.00200
C2390       C  0.47864794  0.59912322  0.62889255    -0.08700
C2391       C  0.45330242  0.57558017  0.63040396     0.61700
H2392       H  0.46425584  0.62240259  0.66999316     0.12400
H2393       H  0.04424152  0.61875038  0.58821000     0.12400
C2394       C  0.05480582  0.66534318  0.62841792     0.61900
F2395       F  0.43318749  0.58163364  0.65383432    -0.23200
F2396       F  0.46519842  0.54681942  0.63531754    -0.20600
F2397       F  0.43711497  0.57572942  0.60337638    -0.20200
F2398       F  0.06632156  0.66648922  0.65779684    -0.20300
F2399       F  0.04597065  0.69427756  0.61955474    -0.20600
F2400       F  0.07788256  0.65588871  0.60917674    -0.23300
O2401       O  0.50120334  0.04848375  0.08880861    -0.80500
O2402       O  0.50134787  0.05282164  0.41465798    -0.82000
O2403       O  0.55373750  0.08407827  0.00225672    -0.79000
O2404       O  0.95215499  0.08842162  0.00134420    -0.77400
O2405       O  0.91472241  0.05230302  0.00025193    -0.79200
O2406       O  0.58876980  0.04609862  0.99963849    -0.80100
O2407       O  0.50274130  0.08881109  0.45263753    -0.81500
O2408       O  0.50265567  0.08597084  0.05229312    -0.81800
Eu2409     Eu  0.50241706  0.06174139  0.00148492     2.39200
O2410       O  0.96924535  0.03256992  0.46871765    -0.89300
O2411       O  0.53273816  0.02921575  0.03147087    -0.92900
C2412       C  0.50168765  0.07668727  0.08032237     1.01800
C2413       C  0.50245715  0.08067872  0.42427159     1.01600
C2414       C  0.58145323  0.07445669  0.00114290     1.01600
C2415       C  0.92401881  0.08030490  0.00098364     0.99400
H2416       H  0.54447720  0.04420032  0.45768968     0.29200
O2417       O  0.53151965  0.03135492  0.47003109    -1.01700
H2418       H  0.95831341  0.04384136  0.04435038     0.29200
O2419       O  0.97045467  0.03093913  0.03133745    -1.04200
O2420       O  0.50016357  0.45234618  0.41052559    -0.81400
O2421       O  0.49526722  0.44543739  0.08532437    -0.81000
O2422       O  0.58637415  0.99881998  0.44979194    -0.79400
O2423       O  0.91257017  0.99980199  0.45049866    -0.82700
O2424       O  0.91410863  0.00325754  0.05109476    -0.80600
O2425       O  0.58807488  0.99583673  0.04831099    -0.79200
O2426       O  0.54700818  0.40994998  0.99928841    -0.80800
O2427       O  0.94814886  0.41363146  0.99998806    -0.82700
O2428       O  0.58468898  0.44568182  0.99994028    -0.79400
O2429       O  0.91257774  0.45139494  0.00035397    -0.82100
O2430       O  0.54998688  0.00018916  0.41269543    -0.77800
O2431       O  0.55225255  0.99895447  0.08618903    -0.77900
O2432       O  0.95106907  0.00083882  0.08742517    -0.77500
O2433       O  0.94846864  0.00123153  0.41283980    -0.81000
O2434       O  0.49978499  0.41483827  0.44702027    -0.80400
O2435       O  0.49460467  0.40982038  0.04712775    -0.78800
Eu2436     Eu  0.50003563  0.00149151  0.43809235     2.39800
Eu2437     Eu  0.50126142  0.99887596  0.06271979     2.39600
Eu2438     Eu  0.56154920  0.99740195  0.99918214     2.38400
Eu2439     Eu  0.93836156  0.00118953  0.00063841     2.39900
Eu2440     Eu  0.49791995  0.43707114  0.99848851     2.39800
O2441       O  0.96888289  0.46874393  0.03001407    -0.93200
O2442       O  0.52968690  0.46998646  0.46775809    -0.92100
C2443       C  0.50007669  0.42409051  0.41896870     1.02000
C2444       C  0.49378837  0.41768954  0.07546322     1.00700
C2445       C  0.57788888  0.99877732  0.42163505     1.00100
C2446       C  0.92060745  0.99988205  0.42225140     1.02100
C2447       C  0.92298169  0.00308213  0.07912232     1.01000
C2448       C  0.57994678  0.99736119  0.07655358     0.99900
C2449       C  0.57526329  0.41775139  0.99967492     0.99900
C2450       C  0.92037280  0.42302646  0.00063593     1.02500
H2451       H  0.54162316  0.45216724  0.04347103     0.29900
O2452       O  0.52954082  0.46569577  0.03099618    -1.05300
H2453       H  0.95567526  0.45605133  0.45629738     0.32000
O2454       O  0.96883580  0.46854740  0.46869729    -1.07900
O2455       O  0.50431577  0.19790935  0.16405897    -0.80500
O2456       O  0.50033867  0.20233064  0.33845566    -0.82000
O2457       O  0.55134852  0.16290891  0.25377262    -0.79000
O2458       O  0.94722988  0.16394873  0.24896685    -0.77400
O2459       O  0.91171546  0.20163376  0.24682972    -0.79200
O2460       O  0.58814828  0.19992989  0.25459576    -0.80100
O2461       O  0.49996580  0.16393804  0.30290877    -0.81500
O2462       O  0.50246489  0.16154832  0.20159349    -0.81800
Eu2463     Eu  0.50079645  0.18739135  0.25190184     2.39200
O2464       O  0.96811553  0.21987426  0.28007936    -0.89300
O2465       O  0.53278560  0.21759543  0.22121947    -0.92900
C2466       C  0.50399433  0.17004149  0.17329192     1.01800
C2467       C  0.50006835  0.17386044  0.33063474     1.01600
C2468       C  0.57933476  0.17180574  0.25484836     1.01600
C2469       C  0.91935855  0.17332234  0.24772496     0.99400
H2470       H  0.54325548  0.20740523  0.29593944     0.29200
O2471       O  0.53097413  0.21968909  0.28245138    -1.01700
H2472       H  0.95587078  0.20638486  0.20506897     0.29200
O2473       O  0.96851403  0.21882642  0.21809249    -1.04200
O2474       O  0.50082641  0.30439020  0.33356859    -0.81400
O2475       O  0.50166921  0.29584389  0.16080011    -0.81000
O2476       O  0.58514941  0.25012443  0.30314085    -0.79400
O2477       O  0.91321298  0.25041752  0.29963200    -0.82700
O2478       O  0.91484834  0.25400892  0.19771520    -0.80600
O2479       O  0.58950261  0.24724517  0.20285686    -0.79200
O2480       O  0.55076022  0.33713315  0.24662324    -0.80800
O2481       O  0.94951993  0.33752038  0.24564403    -0.82700
O2482       O  0.58742124  0.30045793  0.25054827    -0.79400
O2483       O  0.91293397  0.30064306  0.24735591    -0.82100
O2484       O  0.54810892  0.25269534  0.33916475    -0.77800
O2485       O  0.55366212  0.24548782  0.16554537    -0.77900
O2486       O  0.95175807  0.25231497  0.16095570    -0.77500
O2487       O  0.94979786  0.25164668  0.33604232    -0.81000
O2488       O  0.50184626  0.34022312  0.29544958    -0.80400
O2489       O  0.49913223  0.33460609  0.19559239    -0.78800
Eu2490     Eu  0.50016998  0.25223630  0.31154037     2.39800
Eu2491     Eu  0.50288965  0.24762624  0.18867726     2.39600
Eu2492     Eu  0.56270145  0.24993949  0.25174519     2.38400
Eu2493     Eu  0.93793331  0.25078968  0.24865823     2.39900
Eu2494     Eu  0.50079875  0.31227672  0.24716805     2.39800
O2495       O  0.96961013  0.28055477  0.21745630    -0.93200
O2496       O  0.53124592  0.28251125  0.28014510    -0.92100
C2497       C  0.50175788  0.33231375  0.32379801     1.02000
C2498       C  0.49979453  0.32422801  0.16801189     1.00700
C2499       C  0.57611920  0.25115682  0.33122118     1.00100
C2500       C  0.92191607  0.25091501  0.32789992     1.02100
C2501       C  0.92382415  0.25425354  0.16961007     1.01000
C2502       C  0.58152643  0.24558148  0.17465453     0.99900
C2503       C  0.57867289  0.32853486  0.24824655     0.99900
C2504       C  0.92149464  0.32870045  0.24579154     1.02500
H2505       H  0.54584953  0.29224896  0.20544302     0.29900
O2506       O  0.53298279  0.28015446  0.21856985    -1.05300
H2507       H  0.95536012  0.29524852  0.29199624     0.32000
O2508       O  0.96808346  0.28228021  0.27959029    -1.07900
O2509       O  0.83550180  0.50043402  0.20007673    -0.80500
O2510       O  0.66371251  0.49787378  0.19818826    -0.82000
O2511       O  0.75279856  0.44840071  0.16370386    -0.79000
O2512       O  0.74848579  0.04834866  0.16207771    -0.77400
O2513       O  0.74743382  0.08557055  0.19885840    -0.79200
O2514       O  0.75175930  0.41185604  0.20114618    -0.80100
O2515       O  0.70083387  0.49702090  0.16154289    -0.81500
O2516       O  0.80012838  0.49877025  0.16231618    -0.81800
Eu2517     Eu  0.75032924  0.49893828  0.18772848     2.39200
O2518       O  0.71871407  0.02916027  0.21783223    -0.89300
O2519       O  0.78117859  0.46890732  0.21957966    -0.92900
C2520       C  0.82787763  0.49939855  0.17173871     1.01800
C2521       C  0.67279889  0.49686087  0.17011232     1.01600
C2522       C  0.75288130  0.42043346  0.17294123     1.01600
C2523       C  0.74777898  0.07650783  0.17080352     0.99400
H2524       H  0.70735080  0.45445768  0.20619808     0.29200
O2525       O  0.71973662  0.46758049  0.21873601    -1.01700
H2526       H  0.79235495  0.04257798  0.20630696     0.29200
O2527       O  0.77970903  0.02983825  0.21903330    -1.04200
O2528       O  0.66284858  0.49828069  0.29813110    -0.81400
O2529       O  0.83669938  0.50349937  0.29993689    -0.81000
O2530       O  0.70128573  0.41193739  0.25231591    -0.79400
O2531       O  0.69863308  0.08604754  0.25140180    -0.82700
O2532       O  0.79867280  0.08622186  0.24780449    -0.80600
O2533       O  0.80147857  0.41389437  0.25032347    -0.79200
O2534       O  0.74989124  0.44972028  0.33815868    -0.80800
O2535       O  0.74647171  0.04977702  0.33719555    -0.82700
O2536       O  0.75028417  0.41291518  0.30114835    -0.79400
O2537       O  0.74820417  0.08617432  0.29970813    -0.82100
O2538       O  0.66439317  0.44854321  0.25094193    -0.77800
O2539       O  0.83740046  0.45150411  0.25037427    -0.77900
O2540       O  0.83508328  0.04949692  0.24914732    -0.77500
O2541       O  0.66244494  0.04856318  0.24962125    -0.81000
O2542       O  0.69857322  0.49987130  0.33578576    -0.80400
O2543       O  0.80011070  0.50365771  0.33681335    -0.78800
Eu2544     Eu  0.68865253  0.49907654  0.24878806     2.39800
Eu2545     Eu  0.81105520  0.50070445  0.25040685     2.39600
Eu2546     Eu  0.75082324  0.43772836  0.25084043     2.38400
Eu2547     Eu  0.74846482  0.06085990  0.24951136     2.39900
Eu2548     Eu  0.74954231  0.50000612  0.31228338     2.39800
O2549       O  0.77912006  0.03075242  0.28170306    -0.93200
O2550       O  0.71938756  0.46890341  0.28080231    -0.92100
C2551       C  0.67075593  0.49935973  0.32637542     1.02000
C2552       C  0.82819199  0.50461537  0.32805356     1.00700
C2553       C  0.67330089  0.42049082  0.25225069     1.00100
C2554       C  0.67080637  0.07685333  0.25090750     1.02100
C2555       C  0.82675117  0.07755966  0.24756675     1.01000
C2556       C  0.82931686  0.42323751  0.25031369     0.99900
C2557       C  0.75034500  0.42158758  0.32926344     0.99900
C2558       C  0.74732978  0.07782374  0.32799249     1.02500
H2559       H  0.79411507  0.45679319  0.29491619     0.29900
O2560       O  0.78117986  0.46910702  0.28200197    -1.05300
H2561       H  0.70458603  0.04174859  0.29271325     0.32000
O2562       O  0.71762229  0.02925860  0.28017981    -1.07900
O2563       O  0.69878211  0.16401031  0.50011596    -0.80500
O2564       O  0.70175645  0.33785713  0.50064182    -0.82000
O2565       O  0.66487204  0.24695688  0.05003060    -0.79000
O2566       O  0.66426836  0.25182190  0.45005035    -0.77400
O2567       O  0.70086428  0.25010562  0.41354849    -0.79200
O2568       O  0.70062900  0.24804209  0.08741103    -0.80100
O2569       O  0.66436590  0.30183121  0.49960139    -0.81500
O2570       O  0.66294428  0.20144818  0.50064198    -0.81800
Eu2571     Eu  0.68887953  0.25110939  0.50022476     2.39200
O2572       O  0.72038067  0.28167149  0.46979590    -0.89300
O2573       O  0.71989466  0.21804489  0.03101721    -0.92900
C2574       C  0.67096993  0.17317452  0.50036391     1.01800
C2575       C  0.67355174  0.32988339  0.49997143     1.01600
C2576       C  0.67280158  0.24727670  0.07827860     1.01600
C2577       C  0.67293962  0.25111206  0.42188094     0.99400
H2578       H  0.70691197  0.29225980  0.04450676     0.29200
O2579       O  0.71971012  0.27993487  0.03161704    -0.99300
H2580       H  0.70579690  0.20675888  0.45675605     0.29200
O2581       O  0.71874110  0.21913884  0.46950182    -1.04200
O2582       O  0.80222261  0.33559357  0.50274006    -0.81400
O2583       O  0.79875452  0.16179691  0.49733958    -0.81000
O2584       O  0.74973392  0.29816154  0.08850992    -0.79400
O2585       O  0.75037582  0.30063893  0.41450560    -0.82700
O2586       O  0.74887041  0.19822838  0.41454293    -0.80600
O2587       O  0.74982556  0.19773589  0.08683277    -0.79200
O2588       O  0.83736604  0.25191969  0.05041885    -0.80800
O2589       O  0.83552162  0.24915316  0.44908375    -0.82700
O2590       O  0.80038804  0.25169261  0.08701760    -0.79400
O2591       O  0.79862190  0.24864219  0.41298775    -0.82100
O2592       O  0.75091656  0.33592259  0.05233185    -0.77800
O2593       O  0.74962532  0.16117913  0.04946013    -0.77900
O2594       O  0.74765418  0.16117483  0.45137073    -0.77500
O2595       O  0.75053532  0.33753646  0.45157846    -0.81000
O2596       O  0.83741216  0.29759887  0.50298066    -0.80400
O2597       O  0.83584582  0.19826544  0.49717240    -0.78800
Eu2598     Eu  0.75142171  0.31179080  0.50146379     2.39800
Eu2599     Eu  0.74920940  0.18751583  0.50029268     2.39600
Eu2600     Eu  0.75047114  0.24863386  0.06240219     2.38400
Eu2601     Eu  0.75004630  0.24965040  0.43884431     2.39900
Eu2602     Eu  0.81153525  0.24833002  0.50019083     2.39800
O2603       O  0.78046360  0.21792594  0.46917654    -0.93200
O2604       O  0.78097974  0.28003267  0.03148158    -0.92100
C2605       C  0.82995268  0.32595756  0.50342235     1.02000
C2606       C  0.82677542  0.17027235  0.49635066     1.00700
C2607       C  0.75017980  0.32644482  0.08035485     1.00100
C2608       C  0.75007404  0.32875053  0.42346629     1.02100
C2609       C  0.74763340  0.16994983  0.42332397     1.01000
C2610       C  0.74923141  0.16974401  0.07758915     0.99900
C2611       C  0.82840021  0.25240274  0.07853487     0.99900
C2612       C  0.82658002  0.24897626  0.42091661     1.02500
H2613       H  0.79460739  0.20528601  0.04436465     0.29900
O2614       O  0.78187587  0.21794489  0.03165814    -1.05300
H2615       H  0.79428431  0.29311637  0.45707220     0.32000
O2616       O  0.78141740  0.28045352  0.46973930    -1.07900
C2617       C  0.72085001  0.11037685  0.13419301    -0.06100
C2618       C  0.74835964  0.10025735  0.14679787    -0.00200
C2619       C  0.77609420  0.11286614  0.13634816    -0.08800
C2620       C  0.77549381  0.13482128  0.11291763    -0.06100
C2621       C  0.74809500  0.14556111  0.10098466    -0.00200
C2622       C  0.72028608  0.13338957  0.11161538    -0.08700
C2623       C  0.69039827  0.14523126  0.09924904     0.61700
H2624       H  0.69986674  0.10045526  0.14246731     0.12400
H2625       H  0.79644162  0.14417030  0.10405228     0.12400
C2626       C  0.80609024  0.10384193  0.15063941     0.61900
F2627       F  0.66574950  0.13118692  0.11296244    -0.23200
F2628       F  0.68888417  0.14005640  0.06816323    -0.20600
F2629       F  0.68836414  0.17624742  0.10452531    -0.20200
F2630       F  0.80960413  0.07257525  0.14949161    -0.20300
F2631       F  0.80655410  0.11314177  0.18078502    -0.20600
F2632       F  0.83051144  0.11710182  0.13572328    -0.23300
C2633       C  0.73107360  0.37355240  0.15106218    -0.06100
C2634       C  0.75340013  0.39629109  0.14946590    -0.00200
C2635       C  0.77560950  0.39524245  0.12609574    -0.08800
C2636       C  0.77343225  0.37224878  0.10375663    -0.06100
C2637       C  0.75067658  0.34974529  0.10492829    -0.00200
C2638       C  0.72945566  0.34991071  0.12942877    -0.08700
C2639       C  0.70497342  0.32562740  0.13283998     0.61700
H2640       H  0.71472082  0.37460394  0.16952620     0.12400
H2641       H  0.78980882  0.37145989  0.08529469     0.12400
C2642       C  0.80193888  0.41769909  0.12525314     0.61900
F2643       F  0.68515849  0.33217761  0.15652051    -0.23200
F2644       F  0.71815586  0.29770873  0.13906911    -0.20600
F2645       F  0.68819267  0.32351985  0.10629773    -0.20200
F2646       F  0.81520849  0.41979714  0.15381624    -0.20300
F2647       F  0.79164755  0.44616797  0.11644907    -0.20600
F2648       F  0.82418405  0.40865413  0.10487425    -0.23300
C2649       C  0.72671818  0.39639964  0.37410529    -0.06100
C2650       C  0.75070407  0.39740945  0.35299384    -0.00200
C2651       C  0.77408328  0.37519958  0.35465548    -0.08800
C2652       C  0.77320471  0.35344923  0.37834438    -0.06100
C2653       C  0.74943301  0.35266874  0.39959825    -0.00200
C2654       C  0.72529565  0.37384676  0.39706031    -0.08700
C2655       C  0.69774037  0.37197297  0.41784183     0.61700
H2656       H  0.70878832  0.41318016  0.37213892     0.12400
H2657       H  0.79121443  0.33681825  0.38058144     0.12400
C2658       C  0.80021516  0.37479038  0.33200014     0.61900
F2659       F  0.67463165  0.39096569  0.40802837    -0.23200
F2660       F  0.70572918  0.38049014  0.44710709    -0.20600
F2661       F  0.68658347  0.34242936  0.41833227    -0.20200
F2662       F  0.81509639  0.40256667  0.33255724    -0.20300
F2663       F  0.78941507  0.36934264  0.30290587    -0.20600
F2664       F  0.82107247  0.35215153  0.33869940    -0.23300
C2665       C  0.72741097  0.09896350  0.37662896    -0.06100
C2666       C  0.74732068  0.10207797  0.35175788    -0.00200
C2667       C  0.76759150  0.12726165  0.35093214    -0.08800
C2668       C  0.76660800  0.14887060  0.37463622    -0.06100
C2669       C  0.74671892  0.14585633  0.39945640    -0.00200
C2670       C  0.72685678  0.12023362  0.40075403    -0.08700
C2671       C  0.70528762  0.11488545  0.42737743     0.61700
H2672       H  0.71239915  0.07937567  0.37715273     0.12400
H2673       H  0.78183408  0.16827346  0.37419033     0.12400
C2674       C  0.79065003  0.13118259  0.32550893     0.61900
F2675       F  0.68427585  0.09224598  0.42100881    -0.23200
F2676       F  0.68939987  0.14126280  0.43395597    -0.20600
F2677       F  0.72163779  0.10588800  0.45277577    -0.20200
F2678       F  0.77577930  0.13908917  0.29888262    -0.20300
F2679       F  0.80653093  0.10430350  0.32122063    -0.20600
F2680       F  0.81152326  0.15386606  0.33206286    -0.23300
C2681       C  0.90206498  0.12064238  0.23585982    -0.06100
C2682       C  0.89460744  0.14980099  0.24682710    -0.00200
C2683       C  0.86415707  0.15534784  0.25639315    -0.08800
C2684       C  0.84324906  0.13104927  0.25608074    -0.06100
C2685       C  0.85090105  0.10165928  0.24600251    -0.00200
C2686       C  0.88080636  0.09662062  0.23459720    -0.08700
C2687       C  0.89042205  0.06679255  0.21977730     0.61700
H2688       H  0.92493342  0.11686732  0.22768784     0.12400
H2689       H  0.82032535  0.13501143  0.26372254     0.12400
C2690       C  0.85315507  0.18650755  0.26695475     0.61900
F2691       F  0.91945240  0.06834902  0.20789365    -0.23200
F2692       F  0.87083441  0.05979214  0.19613185    -0.20600
F2693       F  0.89049171  0.04357644  0.24103366    -0.20200
F2694       F  0.85399887  0.20683173  0.24274642    -0.20300
F2695       F  0.87119482  0.19696013  0.29053223    -0.20600
F2696       F  0.82356645  0.18571780  0.27756331    -0.23300
C2697       C  0.90287106  0.37889112  0.26314025    -0.06100
C2698       C  0.89757258  0.35263183  0.24563679    -0.00200
C2699       C  0.86975153  0.34983510  0.22942806    -0.08800
C2700       C  0.84831841  0.37352681  0.23168438    -0.06100
C2701       C  0.85354842  0.39966780  0.24942937    -0.00200
C2702       C  0.88124102  0.40230848  0.26579008    -0.08700
C2703       C  0.88794357  0.42905414  0.28678012     0.61700
H2704       H  0.92414304  0.38069090  0.27535992     0.12400
H2705       H  0.82715018  0.37192272  0.21926073     0.12400
C2706       C  0.86289781  0.32276805  0.20883657     0.61900
F2707       F  0.91282736  0.42345845  0.30523461    -0.23200
F2708       F  0.86342953  0.43451695  0.30572033    -0.20600
F2709       F  0.89403605  0.45480427  0.26954199    -0.20200
F2710       F  0.85988888  0.29644066  0.22601600    -0.20300
F2711       F  0.88609059  0.31925965  0.18784084    -0.20600
F2712       F  0.83612203  0.32664384  0.19278563    -0.23300
C2713       C  0.60367400  0.12760792  0.23031883    -0.06100
C2714       C  0.60299071  0.14777985  0.25506959    -0.00200
C2715       C  0.62433515  0.14433583  0.27903592    -0.08800
C2716       C  0.64617740  0.12084638  0.27694213    -0.06100
C2717       C  0.64683413  0.10064934  0.25201888    -0.00200
C2718       C  0.62540453  0.10422301  0.22822239    -0.08700
C2719       C  0.62632198  0.08427962  0.20005715     0.61700
H2720       H  0.58716119  0.13069132  0.21227304     0.12400
H2721       H  0.66285710  0.11795226  0.29486293     0.12400
C2722       C  0.62340334  0.16475522  0.30700228     0.61900
F2723       F  0.61994509  0.05439857  0.20796522    -0.23200
F2724       F  0.65484990  0.08595470  0.18692180    -0.20600
F2725       F  0.60529111  0.09341762  0.17847407    -0.20200
F2726       F  0.59447250  0.16473787  0.31930128    -0.20300
F2727       F  0.63128386  0.19423133  0.29892972    -0.20600
F2728       F  0.64326718  0.15494048  0.32943135    -0.23300
C2729       C  0.62704142  0.34849510  0.26863142    -0.06100
C2730       C  0.60248895  0.35254815  0.24859099    -0.00200
C2731       C  0.60144976  0.37905979  0.22985367    -0.08800
C2732       C  0.62467805  0.40085638  0.23268420    -0.06100
C2733       C  0.64943716  0.39657874  0.25231436    -0.00200
C2734       C  0.65060649  0.37006476  0.27095356    -0.08700
C2735       C  0.67582989  0.36487714  0.29401790     0.61700
H2736       H  0.62752559  0.32817969  0.28276053     0.12400
H2737       H  0.62402737  0.42136975  0.21889511     0.12400
C2738       C  0.57726774  0.38375568  0.20554541     0.61900
F2739       F  0.66929934  0.34084651  0.31356429    -0.23200
F2740       F  0.67976867  0.39074408  0.31163723    -0.20600
F2741       F  0.70259035  0.35814861  0.27898340    -0.20200
F2742       F  0.54930925  0.38866679  0.21895876    -0.20300
F2743       F  0.57585471  0.35830042  0.18701632    -0.20600
F2744       F  0.58358498  0.40870341  0.18709566    -0.23300
C2745       C  0.87410753  0.23731713  0.15090776    -0.06100
C2746       C  0.89981445  0.25550184  0.14594433    -0.00200
C2747       C  0.90146185  0.27401295  0.11934092    -0.08800
C2748       C  0.87738070  0.27276559  0.09816636    -0.06100
C2749       C  0.85199739  0.25376166  0.10277519    -0.00200
C2750       C  0.85033568  0.23567851  0.12970537    -0.08700
C2751       C  0.82472264  0.21312686  0.13538948     0.61700
H2752       H  0.87321523  0.22350357  0.17143365     0.12400
H2753       H  0.87843378  0.28640052  0.07751852     0.12400
C2754       C  0.92843209  0.29470908  0.11291346     0.61900
F2755       F  0.83006532  0.19493019  0.16071525    -0.23200
F2756       F  0.82184523  0.19421396  0.11035574    -0.20600
F2757       F  0.79779942  0.22848335  0.14035606    -0.20200
F2758       F  0.95255829  0.27731007  0.10275374    -0.20300
F2759       F  0.93685487  0.31027040  0.13902091    -0.20600
F2760       F  0.92177972  0.31625676  0.09073552    -0.23300
C2761       C  0.59739320  0.25449829  0.12118761    -0.06100
C2762       C  0.60560327  0.24473508  0.15062929    -0.00200
C2763       C  0.63591346  0.23483916  0.15579575    -0.08800
C2764       C  0.65665707  0.23592909  0.13137452    -0.06100
C2765       C  0.64855000  0.24636566  0.10209535    -0.00200
C2766       C  0.61812819  0.25590264  0.09686707    -0.08700
C2767       C  0.60733860  0.26888913  0.06646384     0.61700
H2768       H  0.57431886  0.26173198  0.11735919     0.12400
H2769       H  0.67978515  0.22863543  0.13516651     0.12400
C2770       C  0.64674290  0.22267699  0.18648504     0.61900
F2771       F  0.57737395  0.27802091  0.06738361    -0.23200
F2772       F  0.60921828  0.24708709  0.04393866    -0.20600
F2773       F  0.62479853  0.29399123  0.05867743    -0.20200
F2774       F  0.62774459  0.19950512  0.19633851    -0.20300
F2775       F  0.64716890  0.24598408  0.20773447    -0.20600
F2776       F  0.67581940  0.21083533  0.18484532    -0.23300
C2777       C  0.61879734  0.24612158  0.40746504    -0.06100
C2778       C  0.64890619  0.25098485  0.39783560    -0.00200
C2779       C  0.65469571  0.25570325  0.36614347    -0.08800
C2780       C  0.63007727  0.25557732  0.34588154    -0.06100
C2781       C  0.59997363  0.25077558  0.35546731    -0.00200
C2782       C  0.59419166  0.24561326  0.38711127    -0.08700
C2783       C  0.56262866  0.23954931  0.40007552     0.61700
H2784       H  0.61442967  0.24277987  0.43153248     0.12400
H2785       H  0.63440436  0.25951455  0.32189140     0.12400
C2786       C  0.68628573  0.26135667  0.35304517     0.61900
F2787       F  0.56329431  0.23271106  0.43095875    -0.23200
F2788       F  0.54951299  0.21494827  0.38540236    -0.20600
F2789       F  0.54470363  0.26518515  0.39653738    -0.20200
F2790       F  0.68569755  0.26727458  0.32196594    -0.20300
F2791       F  0.69930965  0.28643557  0.36701855    -0.20600
F2792       F  0.70422695  0.23582149  0.35736190    -0.23300
C2793       C  0.86774019  0.25196749  0.34341752    -0.06100
C2794       C  0.89826351  0.25063610  0.35256479    -0.00200
C2795       C  0.90489360  0.24896296  0.38450897    -0.08800
C2796       C  0.88063939  0.24810240  0.40533962    -0.06100
C2797       C  0.85013258  0.24938399  0.39619863    -0.00200
C2798       C  0.84348451  0.25139731  0.36430550    -0.08700
C2799       C  0.81131484  0.25303053  0.35153191     0.61700
H2800       H  0.86280975  0.25357780  0.31929470     0.12400
H2801       H  0.88557954  0.24645647  0.42945542     0.12400
C2802       C  0.93702845  0.24818886  0.39749133     0.61900
F2803       F  0.81091080  0.25520132  0.31997577    -0.23200
F2804       F  0.79663842  0.27853063  0.36278352    -0.20600
F2805       F  0.79538764  0.22692616  0.35932015    -0.20200
F2806       F  0.95247491  0.27444654  0.38930012    -0.20300
F2807       F  0.95227456  0.22277347  0.38684695    -0.20600
F2808       F  0.93732816  0.24668381  0.42909540    -0.23300
C2809       C  0.84641487  0.37877893  0.01440534    -0.06100
C2810       C  0.85291897  0.35097412  0.99994298    -0.00200
C2811       C  0.88487577  0.34410443  0.49449431    -0.08800
C2812       C  0.90554184  0.36858653  0.49477680    -0.06100
C2813       C  0.89607908  0.39919720  0.00090044    -0.00200
C2814       C  0.86715485  0.40319484  0.01480933    -0.08700
C2815       C  0.85782016  0.43274464  0.03027450     0.61700
H2816       H  0.82456026  0.38133605  0.02541825     0.12400
H2817       H  0.92816817  0.36503596  0.48615991     0.12400
C2818       C  0.89569801  0.31328334  0.48264254     0.61900
F2819       F  0.83021935  0.43009292  0.04517582    -0.23200
F2820       F  0.85739471  0.45485921  0.51383194    -0.20600
F2821       F  0.87929665  0.44108642  0.05168990    -0.20200
F2822       F  0.87789562  0.30418964  0.45830987    -0.20300
F2823       F  0.89275585  0.29387213  0.98638985    -0.20600
F2824       F  0.92547838  0.31417183  0.47263594    -0.23300
C2825       C  0.87770303  0.15206461  0.01818501    -0.06100
C2826       C  0.85296264  0.14811677  0.99845485    -0.00200
C2827       C  0.84907658  0.11985191  0.47739104    -0.08800
C2828       C  0.87292794  0.09848990  0.47920443    -0.06100
C2829       C  0.90048867  0.10465827  0.00058638    -0.00200
C2830       C  0.90179514  0.13105411  0.01939025    -0.08700
C2831       C  0.92807299  0.13711624  0.04099301     0.61700
H2832       H  0.87798916  0.17201066  0.03276023     0.12400
H2833       H  0.87203461  0.07792011  0.46555522     0.12400
C2834       C  0.82311790  0.11447265  0.45516367     0.61900
F2835       F  0.92270338  0.16205054  0.05962705    -0.23200
F2836       F  0.95217860  0.14203348  0.52239210    -0.20600
F2837       F  0.93271095  0.11205375  0.05959189    -0.20200
F2838       F  0.81891355  0.14007984  0.43711375    -0.20300
F2839       F  0.79994607  0.11488177  0.96707652    -0.20600
F2840       F  0.82884545  0.09006662  0.43596812    -0.23300
C2841       C  0.62827728  0.40357185  0.51363631    -0.06100
C2842       C  0.59889774  0.39333003  0.00081314    -0.00200
C2843       C  0.59642685  0.36508965  0.98507164    -0.08800
C2844       C  0.62056960  0.34414229  0.98686522    -0.06100
C2845       C  0.64736900  0.35051006  0.00301711    -0.00200
C2846       C  0.65260545  0.38270587  0.51472778    -0.08700
C2847       C  0.68065829  0.39096935  0.53314272     0.61700
H2848       H  0.62992371  0.42493202  0.52592018     0.12400
H2849       H  0.61897363  0.32264253  0.97482203     0.12400
C2850       C  0.56945652  0.35756971  0.96488763     0.61900
F2851       F  0.67694064  0.41791968  0.54915225    -0.23200
F2852       F  0.70519988  0.39482472  0.51381100    -0.20600
F2853       F  0.68684426  0.36814318  0.55406252    -0.20200
F2854       F  0.56515676  0.38096244  0.94420041    -0.20300
F2855       F  0.54362053  0.35385751  0.98244190    -0.20600
F2856       F  0.57380397  0.33091961  0.94849603    -0.23300
C2857       C  0.65798503  0.11641237  0.00707541    -0.06100
C2858       C  0.64937461  0.14647686  0.99970631    -0.00200
C2859       C  0.61680794  0.15379139  0.49091754    -0.08800
C2860       C  0.59562727  0.13016947  0.49481977    -0.06100
C2861       C  0.60614407  0.09800406  0.00085189    -0.00200
C2862       C  0.63726622  0.09189904  0.00727551    -0.08700
C2863       C  0.64922050  0.06001199  0.01417260     0.61700
H2864       H  0.68150464  0.11205104  0.01253279     0.12400
H2865       H  0.57224618  0.13435016  0.48883113     0.12400
C2866       C  0.60709949  0.18222064  0.47354754     0.61900
F2867       F  0.67439290  0.06767281  0.53932257    -0.23200
F2868       F  0.64604103  0.04394065  0.50443512    -0.20600
F2869       F  0.63373184  0.04749300  0.03866894    -0.20200
F2870       F  0.62723488  0.18761965  0.44989220    -0.20300
F2871       F  0.60881066  0.20397403  0.00448214    -0.20600
F2872       F  0.57733774  0.18236218  0.97152340    -0.23300
C2873       C  0.84577450  0.49100887  0.38004044    -0.06100
C2874       C  0.85073824  0.00134602  0.35293216    -0.00200
C2875       C  0.87804338  0.01842616  0.34953904    -0.08800
C2876       C  0.90014989  0.01684179  0.37259495    -0.06100
C2877       C  0.89609444  0.99911042  0.39893485    -0.00200
C2878       C  0.86720119  0.48891237  0.40377137    -0.08700
C2879       C  0.85880682  0.47098603  0.43237835     0.61700
H2880       H  0.82376309  0.48038276  0.38285961     0.12400
H2881       H  0.92094192  0.02985110  0.37031989     0.12400
C2882       C  0.88406901  0.03866636  0.32201477     0.61900
F2883       F  0.83881205  0.94177425  0.42506717    -0.23200
F2884       F  0.85823575  0.97786967  0.45531115    -0.20600
F2885       F  0.88093944  0.44950827  0.43859550    -0.20200
F2886       F  0.85953231  0.05763777  0.31691112    -0.20300
F2887       F  0.89310833  0.51675173  0.29570226    -0.20600
F2888       F  0.91704649  0.55253014  0.32262761    -0.23300
C2889       C  0.59896832  0.01720444  0.37249669    -0.06100
C2890       C  0.60183812  0.99756616  0.39773279    -0.00200
C2891       C  0.63137161  0.48606062  0.40225456    -0.08800
C2892       C  0.65246178  0.48612423  0.37811566    -0.06100
C2893       C  0.64545231  0.99736720  0.35013150    -0.00200
C2894       C  0.62077448  0.01808284  0.34899080    -0.08700
C2895       C  0.61846367  0.04233296  0.32419447     0.61700
H2896       H  0.57971951  0.03250423  0.37168918     0.12400
H2897       H  0.67440879  0.47552122  0.38125542     0.12400
C2898       C  0.64089260  0.47173589  0.43247908     0.61900
F2899       F  0.59556417  0.06308527  0.33015675    -0.23200
F2900       F  0.61241046  0.02889810  0.29631984    -0.20600
F2901       F  0.64547787  0.05836701  0.32239335    -0.20200
F2902       F  0.62045687  0.44923975  0.44078011    -0.20300
F2903       F  0.64227881  0.49388545  0.45490069    -0.20600
F2904       F  0.66932070  0.45839133  0.43082810    -0.23300
C2905       C  0.61703294  0.46866660  0.10984520    -0.06100
C2906       C  0.60433575  0.99799490  0.09952359    -0.00200
C2907       C  0.61104982  0.02457687  0.11656229    -0.08800
C2908       C  0.63324853  0.02281738  0.13952373    -0.06100
C2909       C  0.64969165  0.99601288  0.14502930    -0.00200
C2910       C  0.64076060  0.46812408  0.13151203    -0.08700
C2911       C  0.65727930  0.43859430  0.13855999     0.61700
H2912       H  0.61015936  0.44786185  0.09844541     0.12400
H2913       H  0.63844593  0.04284734  0.15280945     0.12400
C2914       C  0.59525938  0.05501451  0.11141371     0.61900
F2915       F  0.64513748  0.41412707  0.12277635    -0.23200
F2916       F  0.65840054  0.93140643  0.16260607    -0.20600
F2917       F  0.68745264  0.44148510  0.13035160    -0.20200
F2918       F  0.57226806  0.05828933  0.13264831    -0.20300
F2919       F  0.59564743  0.55854955  0.07757269    -0.20600
F2920       F  0.61573105  0.07873514  0.11488342    -0.23300
C2921       C  0.90395162  0.48997686  0.13022274    -0.06100
C2922       C  0.89929522  0.00486832  0.10355578    -0.00200
C2923       C  0.87109397  0.02013340  0.09978527    -0.08800
C2924       C  0.84883033  0.01713087  0.12274461    -0.06100
C2925       C  0.85433032  0.00152522  0.15028788    -0.00200
C2926       C  0.88233569  0.48847042  0.15387303    -0.08700
C2927       C  0.89145241  0.47411101  0.18419937     0.61700
H2928       H  0.92647656  0.48130628  0.13422079     0.12400
H2929       H  0.82676269  0.02729746  0.11926287     0.12400
C2930       C  0.86468154  0.04077747  0.07256563     0.61900
F2931       F  0.92028360  0.46191498  0.18336202    -0.23200
F2932       F  0.87147814  0.45088728  0.19169764    -0.20600
F2933       F  0.89214448  0.99217233  0.20884711    -0.20200
F2934       F  0.85775017  0.51317039  0.04285993    -0.20300
F2935       F  0.88899787  0.06017512  0.06761186    -0.20600
F2936       F  0.83931635  0.05877434  0.07736843    -0.23300
C2937       C  0.52752450  0.14393379  0.36987617    -0.06100
C2938       C  0.50006962  0.15065551  0.35519156    -0.00200
C2939       C  0.96864575  0.13511075  0.36223123    -0.08800
C2940       C  0.97073701  0.11319677  0.38571912    -0.06100
C2941       C  0.50258222  0.10510350  0.40087728    -0.00200
C2942       C  0.52930515  0.12113324  0.39256333    -0.08700
C2943       C  0.55949998  0.11387851  0.40739085     0.61700
H2944       H  0.54767194  0.15636590  0.36302627     0.12400
H2945       H  0.95055514  0.10158187  0.39383150     0.12400
C2946       C  0.93828148  0.14184267  0.34737274     0.61900
F2947       F  0.58278103  0.13183409  0.39592687    -0.23200
F2948       F  0.56686332  0.08362104  0.40251812    -0.20600
F2949       F  0.55739726  0.11899421  0.43833379    -0.20200
F2950       F  0.93878793  0.13187381  0.31742651    -0.20300
F2951       F  0.93259838  0.17287116  0.34776071    -0.20600
F2952       F  0.91464670  0.12726243  0.36233544    -0.23300
C2953       C  0.52099116  0.40343755  0.37048310    -0.06100
C2954       C  0.50007823  0.40059489  0.39459352    -0.00200
C2955       C  0.97798119  0.37198698  0.39810507    -0.08800
C2956       C  0.97944020  0.35079059  0.37409174    -0.06100
C2957       C  0.50171330  0.35692161  0.34702068    -0.00200
C2958       C  0.52236083  0.38186152  0.34662689    -0.08700
C2959       C  0.54609597  0.38548735  0.32164386     0.61700
H2960       H  0.53652410  0.42261828  0.37067430     0.12400
H2961       H  0.96475490  0.33098375  0.37434374     0.12400
C2962       C  0.95533895  0.36698774  0.42374791     0.61900
F2963       F  0.56712472  0.40789548  0.32870298    -0.23200
F2964       F  0.53213118  0.39357484  0.29455953    -0.20600
F2965       F  0.56168944  0.35840697  0.31763279    -0.20200
F2966       F  0.93873314  0.39330929  0.42869085    -0.20300
F2967       F  0.97074409  0.35908652  0.45006537    -0.20600
F2968       F  0.93505891  0.34379052  0.41705628    -0.23300
C2969       C  0.51531942  0.37020599  0.09595886    -0.06100
C2970       C  0.49297662  0.39274963  0.09820954    -0.00200
C2971       C  0.98058312  0.39730373  0.12620857    -0.08800
C2972       C  0.98233182  0.37397619  0.14810003    -0.06100
C2973       C  0.49749589  0.34655582  0.14285584    -0.00200
C2974       C  0.51779983  0.34678987  0.11775109    -0.08700
C2975       C  0.54192299  0.32255804  0.11370846     0.61700
H2976       H  0.53112926  0.37135275  0.07702057     0.12400
H2977       H  0.96744205  0.37428343  0.16781002     0.12400
C2978       C  0.95781276  0.42267822  0.13076216     0.61900
F2979       F  0.56208536  0.33025666  0.09069643    -0.23200
F2980       F  0.52811374  0.29525006  0.10611979    -0.20600
F2981       F  0.55837729  0.31891458  0.14031727    -0.20200
F2982       F  0.94159954  0.42769951  0.10419875    -0.20300
F2983       F  0.97301041  0.44901396  0.13907332    -0.20600
F2984       F  0.93722443  0.41543995  0.15350470    -0.23300
C2985       C  0.98177506  0.12199181  0.15004890    -0.06100
C2986       C  0.50435314  0.14618748  0.14948206    -0.00200
C2987       C  0.52664607  0.14526574  0.12605704    -0.08800
C2988       C  0.52472625  0.12221104  0.10383555    -0.06100
C2989       C  0.50159635  0.10022873  0.10445680    -0.00200
C2990       C  0.98112319  0.09845374  0.12819587    -0.08700
C2991       C  0.95816317  0.07274904  0.13150970     0.61700
H2992       H  0.96629958  0.12131323  0.16929181     0.12400
H2993       H  0.54152491  0.12097493  0.08579215     0.12400
C2994       C  0.55282921  0.16787315  0.12484907     0.61900
F2995       F  0.93562823  0.08006480  0.15215999    -0.23200
F2996       F  0.97263297  0.04661002  0.14156978    -0.20600
F2997       F  0.94416870  0.06696745  0.10390136    -0.20200
F2998       F  0.56702844  0.16917819  0.15297311    -0.20300
F2999       F  0.54217352  0.19652422  0.11714432    -0.20600
F3000       F  0.57436947  0.15960981  0.10334630    -0.23300
O3001       O  0.50171771  0.04734446  0.59000964    -0.80500
O3002       O  0.49959659  0.05307114  0.91441680    -0.82000
O3003       O  0.55195483  0.08576936  0.50521292    -0.79000
O3004       O  0.95023529  0.08785095  0.49911948    -0.77400
O3005       O  0.91344765  0.05106639  0.49865579    -0.79200
O3006       O  0.58805299  0.04872161  0.50245170    -0.80100
O3007       O  0.50261299  0.08885469  0.95233973    -0.81500
O3008       O  0.50233361  0.08515009  0.55378025    -0.81800
Eu3009     Eu  0.50146182  0.06203551  0.50230915     2.39200
O3010       O  0.96911980  0.03219582  0.96934612    -0.89300
O3011       O  0.53184868  0.02970872  0.53227096    -0.92900
C3012       C  0.50201831  0.07560978  0.58175516     1.01800
C3013       C  0.50109578  0.08099307  0.92400847     1.01600
C3014       C  0.57988582  0.07683508  0.50465195     1.01600
C3015       C  0.92223310  0.07921406  0.49878011     0.99400
H3016       H  0.54457116  0.04287063  0.95644414     0.29200
O3017       O  0.53156928  0.03032869  0.96905348    -1.01700
H3018       H  0.95676955  0.04399197  0.54371709     0.29200
O3019       O  0.96943925  0.03147472  0.53082523    -1.04200
O3020       O  0.49950944  0.45140122  0.91124758    -0.81400
O3021       O  0.49938057  0.44825861  0.58557295    -0.81000
O3022       O  0.58643785  0.99645266  0.94916976    -0.79400
O3023       O  0.91156883  0.00156719  0.95175105    -0.82700
O3024       O  0.91360002  0.00029166  0.54959621    -0.80600
O3025       O  0.58770326  0.99811242  0.55004511    -0.79200
O3026       O  0.54926944  0.41279421  0.49749234    -0.80800
O3027       O  0.94980362  0.41314067  0.50301264    -0.82700
O3028       O  0.58591253  0.44964812  0.49818757    -0.79400
O3029       O  0.91364561  0.45023650  0.50276424    -0.82100
O3030       O  0.54966535  0.99905644  0.91245548    -0.77800
O3031       O  0.55136190  0.99901094  0.58754731    -0.77900
O3032       O  0.94981293  0.99944752  0.58668396    -0.77500
O3033       O  0.94714543  0.00136280  0.91380681    -0.81000
O3034       O  0.49764795  0.41349758  0.94741410    -0.80400
O3035       O  0.50004508  0.41194634  0.54809578    -0.78800
Eu3036     Eu  0.49921165  0.00125020  0.93754232     2.39800
Eu3037     Eu  0.50094673  0.99839222  0.56297695     2.39600
Eu3038     Eu  0.56207000  0.99925731  0.50028655     2.38400
Eu3039     Eu  0.93868021  0.00089838  0.49955600     2.39900
Eu3040     Eu  0.49927808  0.43814141  0.49830257     2.39800
O3041       O  0.96967523  0.46843259  0.53084753    -0.93200
O3042       O  0.52947198  0.46794482  0.96817787    -0.92100
C3043       C  0.49858093  0.42315832  0.91954344     1.02000
C3044       C  0.49958224  0.42035179  0.57635817     1.00700
C3045       C  0.57767975  0.99704262  0.92112126     1.00100
C3046       C  0.91933094  0.00128748  0.92340229     1.02100
C3047       C  0.92182003  0.00015678  0.57781843     1.01000
C3048       C  0.57920524  0.99866266  0.57823662     0.99900
C3049       C  0.57728803  0.42146437  0.49743501     0.99900
C3050       C  0.92187236  0.42201747  0.50401472     1.02500
H3051       H  0.54267835  0.45539668  0.54212710     0.29900
O3052       O  0.52999817  0.46847571  0.52979858    -1.05300
H3053       H  0.95513012  0.45718625  0.95517620     0.32000
O3054       O  0.96820930  0.46948439  0.96785712    -1.07900
O3055       O  0.50197606  0.19890144  0.66364099    -0.80500
O3056       O  0.49781087  0.20247113  0.83799931    -0.82000
O3057       O  0.54938974  0.16347083  0.75415914    -0.79000
O3058       O  0.94722913  0.16473092  0.75158355    -0.77400
O3059       O  0.91143368  0.20210274  0.75034835    -0.79200
O3060       O  0.58599674  0.20060729  0.75373835    -0.80100
O3061       O  0.49580505  0.16458871  0.80209188    -0.81500
O3062       O  0.50025777  0.16268261  0.70134514    -0.81800
Eu3063     Eu  0.49916372  0.18861834  0.75155057     2.39200
O3064       O  0.96820362  0.22085176  0.78074362    -0.89300
O3065       O  0.53088920  0.21895421  0.72064353    -0.92900
C3066       C  0.50168877  0.17098674  0.67300368     1.01800
C3067       C  0.49605188  0.17414368  0.82992159     1.01600
C3068       C  0.57737733  0.17245322  0.75485830     1.01600
C3069       C  0.91926643  0.17386489  0.75114618     0.99400
H3070       H  0.54235722  0.20782386  0.79559861     0.29200
O3071       O  0.53004721  0.22025148  0.78223954    -1.01700
H3072       H  0.95554542  0.20606617  0.70643398     0.29200
O3073       O  0.96819914  0.21888582  0.71906677    -1.04200
O3074       O  0.50191928  0.30326937  0.83565819    -0.81400
O3075       O  0.50200930  0.29745384  0.66069888    -0.81000
O3076       O  0.58537447  0.25263940  0.80169041    -0.79400
O3077       O  0.91433993  0.25029812  0.80093724    -0.82700
O3078       O  0.91355065  0.25064604  0.69848828    -0.80600
O3079       O  0.58724045  0.24904621  0.70180857    -0.79200
O3080       O  0.54960677  0.33800175  0.74904343    -0.80800
O3081       O  0.94893067  0.33802006  0.74498972    -0.82700
O3082       O  0.58647986  0.30134785  0.75126247    -0.79400
O3083       O  0.91226233  0.30107777  0.74675594    -0.82100
O3084       O  0.54853399  0.25252145  0.83791258    -0.77800
O3085       O  0.55127585  0.24687150  0.66465639    -0.77900
O3086       O  0.95092279  0.24921492  0.66222089    -0.77500
O3087       O  0.95080370  0.25224145  0.83759324    -0.81000
O3088       O  0.50114000  0.33954479  0.79782748    -0.80400
O3089       O  0.50029903  0.33553373  0.69635065    -0.78800
Eu3090     Eu  0.49950357  0.25247938  0.81193211     2.39800
Eu3091     Eu  0.50063916  0.24905996  0.68841516     2.39600
Eu3092     Eu  0.56125565  0.25097039  0.75118923     2.38400
Eu3093     Eu  0.93761671  0.25123542  0.74925392     2.39900
Eu3094     Eu  0.49959393  0.31320165  0.74821346     2.39800
O3095       O  0.96901912  0.28060611  0.71719984    -0.93200
O3096       O  0.53010284  0.28298853  0.78037847    -0.92100
C3097       C  0.50214359  0.33114373  0.82609184     1.02000
C3098       C  0.50155423  0.32575141  0.66850271     1.00700
C3099       C  0.57656577  0.25265289  0.82984442     1.00100
C3100       C  0.92302635  0.25069075  0.82922624     1.02100
C3101       C  0.92283278  0.25018374  0.67046790     1.01000
C3102       C  0.57919835  0.24718662  0.67364725     0.99900
C3103       C  0.57757554  0.32944133  0.75016192     0.99900
C3104       C  0.92090889  0.32916366  0.74512699     1.02500
H3105       H  0.54398912  0.29346868  0.70578516     0.29900
O3106       O  0.53104170  0.28123115  0.71870231    -1.05300
H3107       H  0.95539991  0.29619370  0.79179093     0.32000
O3108       O  0.96810565  0.28314300  0.77945519    -1.07900
O3109       O  0.83493689  0.49798066  0.69892309    -0.80500
O3110       O  0.66259781  0.49992028  0.69819180    -0.82000
O3111       O  0.75203686  0.44876934  0.66252371    -0.79000
O3112       O  0.74878169  0.04897886  0.66237843    -0.77400
O3113       O  0.74670995  0.08623415  0.69905095    -0.79200
O3114       O  0.75100860  0.41253100  0.70030370    -0.80100
O3115       O  0.69928433  0.49697249  0.66118690    -0.81500
O3116       O  0.79917013  0.49740817  0.66153649    -0.81800
Eu3117     Eu  0.74903113  0.49921270  0.68679082     2.39200
O3118       O  0.71828386  0.03010370  0.71807727    -0.89300
O3119       O  0.77959508  0.46889244  0.71863614    -0.92900
C3120       C  0.82705596  0.49693825  0.67069700     1.01800
C3121       C  0.67132509  0.49787521  0.66998636     1.01600
C3122       C  0.75240539  0.42087685  0.67199878     1.01600
C3123       C  0.74754316  0.07708577  0.67107959     0.99400
H3124       H  0.70573924  0.45550311  0.70641447     0.29200
O3125       O  0.71835123  0.46857754  0.71877308    -1.01700
H3126       H  0.79261981  0.04319801  0.70577267     0.29200
O3127       O  0.77997095  0.03061194  0.71865687    -1.04200
O3128       O  0.66314005  0.50117475  0.80004987    -0.81400
O3129       O  0.83640604  0.50232552  0.79811794    -0.81000
O3130       O  0.69929474  0.41334384  0.75250220    -0.79400
O3131       O  0.69838503  0.08702223  0.75214648    -0.82700
O3132       O  0.79937094  0.08577285  0.74819596    -0.80600
O3133       O  0.79973827  0.41318285  0.74968972    -0.79200
O3134       O  0.74976587  0.45128951  0.83784505    -0.80800
O3135       O  0.74958403  0.05076714  0.83638522    -0.82700
O3136       O  0.75024410  0.41378555  0.80140664    -0.79400
O3137       O  0.75003280  0.08725361  0.79899799    -0.82100
O3138       O  0.66258880  0.45029100  0.75163727    -0.77800
O3139       O  0.83566302  0.45078182  0.74902243    -0.77900
O3140       O  0.83607668  0.04925468  0.74966588    -0.77500
O3141       O  0.66216405  0.04958359  0.75100195    -0.81000
O3142       O  0.69965793  0.50127680  0.83715425    -0.80400
O3143       O  0.80025385  0.50319138  0.83542632    -0.78800
Eu3144     Eu  0.68757220  0.50051501  0.74917351     2.39800
Eu3145     Eu  0.81024004  0.50041479  0.74887801     2.39600
Eu3146     Eu  0.74943308  0.43808199  0.75045482     2.38400
Eu3147     Eu  0.74854608  0.06150663  0.74938829     2.39900
Eu3148     Eu  0.74955602  0.50119692  0.81148940     2.39800
O3149       O  0.77929948  0.03083361  0.78081581    -0.93200
O3150       O  0.71873765  0.47007781  0.78056338    -0.92100
C3151       C  0.67169352  0.50155986  0.82827157     1.02000
C3152       C  0.82820214  0.50344588  0.82632727     1.00700
C3153       C  0.67137085  0.42218025  0.75278764     1.00100
C3154       C  0.67043886  0.07795427  0.75210067     1.02100
C3155       C  0.82752090  0.07728210  0.74837620     1.01000
C3156       C  0.82759257  0.42253280  0.74934532     0.99900
C3157       C  0.75029148  0.42304598  0.82941685     0.99900
C3158       C  0.75038324  0.07884991  0.82721637     1.02500
H3159       H  0.79323367  0.45718647  0.79380307     0.29900
O3160       O  0.78027816  0.46956497  0.78097706    -1.05300
H3161       H  0.70538133  0.04274749  0.79340637     0.32000
O3162       O  0.71813813  0.03015766  0.78068168    -1.07900
O3163       O  0.70142223  0.16187525  0.99970348    -0.80500
O3164       O  0.69972112  0.33584864  0.00205725    -0.82000
O3165       O  0.66382163  0.24971709  0.54976899    -0.79000
O3166       O  0.66508053  0.24984119  0.94916537    -0.77400
O3167       O  0.70167948  0.24994814  0.91264778    -0.79200
O3168       O  0.69951166  0.24898038  0.58715933    -0.80100
O3169       O  0.66338564  0.29868910  0.00170372    -0.81500
O3170       O  0.66524155  0.19878253  0.00048771    -0.81800
Eu3171     Eu  0.68941314  0.24917472  0.99993367     2.39200
O3172       O  0.71984181  0.28104644  0.96949521    -0.89300
O3173       O  0.71864463  0.21883829  0.53107095    -0.92900
C3174       C  0.67345631  0.17061856  0.99991899     1.01800
C3175       C  0.67179184  0.32693450  0.00246672     1.01600
C3176       C  0.67161987  0.24923931  0.57799979     1.01600
C3177       C  0.67372828  0.25005107  0.92089964     0.99400
H3178       H  0.70730120  0.29376179  0.54485178     0.29200
O3179       O  0.71982331  0.28103363  0.53208982    -0.99300
H3180       H  0.70742825  0.20564828  0.95609972     0.29200
O3181       O  0.72002023  0.21831799  0.96891883    -1.04200
O3182       O  0.80091311  0.33606029  0.00078140    -0.81400
O3183       O  0.80104216  0.16288012  0.99953059    -0.81000
O3184       O  0.75074225  0.29775839  0.58880752    -0.79400
O3185       O  0.75053480  0.30126977  0.91398024    -0.82700
O3186       O  0.75110820  0.19940828  0.91335769    -0.80600
O3187       O  0.74830593  0.19791174  0.58712350    -0.79200
O3188       O  0.83699784  0.24739319  0.55025340    -0.80800
O3189       O  0.83595724  0.24946912  0.94913315    -0.82700
O3190       O  0.80018079  0.24851341  0.58709824    -0.79400
O3191       O  0.79924032  0.24867096  0.91271290    -0.82100
O3192       O  0.75237494  0.33549251  0.55258588    -0.77800
O3193       O  0.74857526  0.16128307  0.54983536    -0.77900
O3194       O  0.75140272  0.16255703  0.95032625    -0.77500
O3195       O  0.74958786  0.33796847  0.95124827    -0.81000
O3196       O  0.83725949  0.29904233  0.00041976    -0.80400
O3197       O  0.83759497  0.19988662  0.99927855    -0.78800
Eu3198     Eu  0.75035840  0.31178714  0.00117691     2.39800
Eu3199     Eu  0.75099544  0.18752973  0.00011477     2.39600
Eu3200     Eu  0.74991004  0.24851022  0.56255146     2.38400
Eu3201     Eu  0.75058292  0.25008950  0.93846635     2.39900
Eu3202     Eu  0.81202750  0.24955628  0.00026298     2.39800
O3203       O  0.78145815  0.21883356  0.96908747    -0.93200
O3204       O  0.78120163  0.27920068  0.53165780    -0.92100
C3205       C  0.82887923  0.32712696  0.00027056     1.02000
C3206       C  0.82893631  0.17174914  0.99884245     1.00700
C3207       C  0.75157981  0.32598749  0.58055809     1.00100
C3208       C  0.74988546  0.32936515  0.92303822     1.02100
C3209       C  0.75097663  0.17119992  0.92223655     1.01000
C3210       C  0.74801528  0.16992643  0.57795590     0.99900
C3211       C  0.82817725  0.24779572  0.57842148     0.99900
C3212       C  0.82713605  0.24903447  0.92093523     1.02500
H3213       H  0.79322812  0.20422982  0.54405010     0.29900
O3214       O  0.78071378  0.21733270  0.53156967    -1.05300
H3215       H  0.79384956  0.29385928  0.95690403     0.32000
O3216       O  0.78122540  0.28106395  0.96967150    -1.07900
C3217       C  0.72040580  0.11364326  0.63781545    -0.06100
C3218       C  0.74795060  0.10070632  0.64717678    -0.00200
C3219       C  0.77553034  0.11063137  0.63395056    -0.08800
C3220       C  0.77459853  0.13269123  0.61063955    -0.06100
C3221       C  0.74715507  0.14592510  0.60150245    -0.00200
C3222       C  0.71957915  0.13633168  0.61502121    -0.08700
C3223       C  0.68957512  0.14980681  0.60486140     0.61700
H3224       H  0.69961071  0.10580411  0.64847214     0.12400
H3225       H  0.79531636  0.13984639  0.59944509     0.12400
C3226       C  0.80571277  0.09821015  0.64496512     0.61900
F3227       F  0.66523501  0.13691539  0.62020122    -0.23200
F3228       F  0.68568256  0.14483781  0.57395566    -0.20600
F3229       F  0.68946979  0.18083467  0.61031818    -0.20200
F3230       F  0.80722316  0.06734393  0.63899667    -0.20300
F3231       F  0.80845004  0.10278946  0.67609155    -0.20600
F3232       F  0.83001156  0.11237315  0.63072052    -0.23300
C3233       C  0.73068802  0.37414224  0.64968754    -0.06100
C3234       C  0.75347059  0.39647559  0.64873225    -0.00200
C3235       C  0.77660566  0.39464938  0.62626691    -0.08800
C3236       C  0.77501787  0.37129072  0.60430456    -0.06100
C3237       C  0.75188982  0.34927337  0.60493997    -0.00200
C3238       C  0.72957066  0.35025897  0.62830586    -0.08700
C3239       C  0.70442444  0.32657624  0.63056218     0.61700
H3240       H  0.71358582  0.37569350  0.66740883     0.12400
H3241       H  0.79205027  0.36987274  0.58648840     0.12400
C3242       C  0.80329613  0.41658786  0.62591816     0.61900
F3243       F  0.68313556  0.33419703  0.65254007    -0.23200
F3244       F  0.71661260  0.29859336  0.63842676    -0.20600
F3245       F  0.68954263  0.32407909  0.60289793    -0.20200
F3246       F  0.81600507  0.41841210  0.65472580    -0.20300
F3247       F  0.79366975  0.44519906  0.61684760    -0.20600
F3248       F  0.82578815  0.40709035  0.60601543    -0.23300
C3249       C  0.72381275  0.39212563  0.86874063    -0.06100
C3250       C  0.75096294  0.39944273  0.85368507    -0.00200
C3251       C  0.77797471  0.38386913  0.86158807    -0.08800
C3252       C  0.77689168  0.36131944  0.88465125    -0.06100
C3253       C  0.74955959  0.35358077  0.89930082    -0.00200
C3254       C  0.72248627  0.36884508  0.89097820    -0.08700
C3255       C  0.69223482  0.35983999  0.90492323     0.61700
H3256       H  0.70351663  0.40455703  0.86262655     0.12400
H3257       H  0.79737420  0.34945871  0.89136478     0.12400
C3258       C  0.80773354  0.39145732  0.84581769     0.61900
F3259       F  0.66839246  0.37589564  0.89209438    -0.23200
F3260       F  0.69250989  0.36551891  0.93596489    -0.20600
F3261       F  0.68706113  0.32908574  0.90010304    -0.20200
F3262       F  0.81463795  0.42191900  0.85030454    -0.20300
F3263       F  0.80524241  0.38591695  0.81484643    -0.20600
F3264       F  0.83150489  0.37410386  0.85695638    -0.23300
C3265       C  0.73294409  0.09888405  0.87699764    -0.06100
C3266       C  0.75110877  0.10305383  0.85099504    -0.00200
C3267       C  0.76962793  0.12954401  0.84878392    -0.08800
C3268       C  0.76875372  0.15114316  0.87253505    -0.06100
C3269       C  0.75050180  0.14700958  0.89848003    -0.00200
C3270       C  0.73217082  0.12034781  0.90085506    -0.08700
C3271       C  0.71091072  0.11483475  0.92771681     0.61700
H3272       H  0.71898454  0.07856680  0.87832939     0.12400
H3273       H  0.78265295  0.17150752  0.87115764     0.12400
C3274       C  0.79096997  0.13476371  0.82207643     0.61900
F3275       F  0.69245019  0.08966236  0.92315931    -0.23200
F3276       F  0.69235854  0.13994249  0.93175616    -0.20600
F3277       F  0.72746106  0.10961201  0.95400381    -0.20200
F3278       F  0.77434543  0.14064822  0.79597326    -0.20300
F3279       F  0.80887714  0.10922219  0.81773799    -0.20600
F3280       F  0.81007154  0.15936388  0.82699741    -0.23300
C3281       C  0.90315216  0.12046687  0.74141752    -0.06100
C3282       C  0.89474686  0.15005711  0.75042738    -0.00200
C3283       C  0.86350323  0.15583970  0.75688187    -0.08800
C3284       C  0.84284779  0.13133862  0.75586171    -0.06100
C3285       C  0.85144475  0.10162239  0.74765148    -0.00200
C3286       C  0.88203354  0.09654821  0.73849591    -0.08700
C3287       C  0.89242569  0.06714750  0.72338499     0.61700
H3288       H  0.92662241  0.11627024  0.73553139     0.12400
H3289       H  0.81931751  0.13547075  0.76114655     0.12400
C3290       C  0.85125732  0.18737667  0.76468012     0.61900
F3291       F  0.92120663  0.06986778  0.71104450    -0.23200
F3292       F  0.87282861  0.05960174  0.69991796    -0.20600
F3293       F  0.89341197  0.04380574  0.74442598    -0.20200
F3294       F  0.85490742  0.20672213  0.73994280    -0.20300
F3295       F  0.86628363  0.19891580  0.78984954    -0.20600
F3296       F  0.82058733  0.18686084  0.77154557    -0.23300
C3297       C  0.90124002  0.37871117  0.76339305    -0.06100
C3298       C  0.89700737  0.35308439  0.74470838    -0.00200
C3299       C  0.87024763  0.35087601  0.72678888    -0.08800
C3300       C  0.84802001  0.37378262  0.72951067    -0.06100
C3301       C  0.85206170  0.39920462  0.74855137    -0.00200
C3302       C  0.87930650  0.40191070  0.76569648    -0.08700
C3303       C  0.88533218  0.42878416  0.78675019     0.61700
H3304       H  0.92196537  0.38027028  0.77656295     0.12400
H3305       H  0.82730863  0.37220034  0.71631198     0.12400
C3306       C  0.86540239  0.32518796  0.70404754     0.61900
F3307       F  0.91018077  0.42375796  0.80540365    -0.23200
F3308       F  0.86052933  0.43382018  0.80542702    -0.20600
F3309       F  0.89110195  0.45461115  0.76950493    -0.20200
F3310       F  0.85855138  0.29845889  0.71940092    -0.20300
F3311       F  0.89130197  0.32103764  0.68671172    -0.20600
F3312       F  0.84180554  0.33151437  0.68416313    -0.23300
C3313       C  0.60109317  0.12676545  0.73241811    -0.06100
C3314       C  0.60133736  0.14856741  0.75567902    -0.00200
C3315       C  0.62457516  0.14747261  0.77809721    -0.08800
C3316       C  0.64648235  0.12383622  0.77661056    -0.06100
C3317       C  0.64618209  0.10189661  0.75312768    -0.00200
C3318       C  0.62358322  0.10408750  0.73022914    -0.08700
C3319       C  0.62435288  0.08386097  0.70239665     0.61700
H3320       H  0.58350119  0.12832404  0.71522685     0.12400
H3321       H  0.66413337  0.12238089  0.79372822     0.12400
C3322       C  0.62588554  0.17086442  0.80363436     0.61900
F3323       F  0.61816442  0.05407639  0.71077324    -0.23200
F3324       F  0.65275026  0.08562302  0.68896753    -0.20600
F3325       F  0.60314861  0.09277614  0.68092533    -0.20200
F3326       F  0.59870568  0.17097351  0.81950150    -0.20300
F3327       F  0.63109764  0.19955624  0.79156191    -0.20600
F3328       F  0.64895945  0.16468693  0.82412413    -0.23300
C3329       C  0.62456118  0.35141297  0.77217130    -0.06100
C3330       C  0.60116861  0.35365029  0.75052443    -0.00200
C3331       C  0.60067007  0.37888497  0.73012044    -0.08800
C3332       C  0.62406715  0.40066865  0.73177771    -0.06100
C3333       C  0.64750489  0.39833875  0.75326626    -0.00200
C3334       C  0.64737667  0.37383245  0.77448477    -0.08700
C3335       C  0.67001414  0.37232636  0.80055768     0.61700
H3336       H  0.62439350  0.33224525  0.78784396     0.12400
H3337       H  0.62424017  0.41989263  0.71617520     0.12400
C3338       C  0.57576218  0.38292972  0.70650981     0.61900
F3339       F  0.66196939  0.35049058  0.82201544    -0.23200
F3340       F  0.67113113  0.40025015  0.81518822    -0.20600
F3341       F  0.69849679  0.36514206  0.78949376    -0.20200
F3342       F  0.54915489  0.39138780  0.72094497    -0.20300
F3343       F  0.57118943  0.35598869  0.69077364    -0.20600
F3344       F  0.58297004  0.40530712  0.68532896    -0.23300
C3345       C  0.87404330  0.23097800  0.65050524    -0.06100
C3346       C  0.89933438  0.24998587  0.64619743    -0.00200
C3347       C  0.90110320  0.26848943  0.61957845    -0.08800
C3348       C  0.87741367  0.26691271  0.59804807    -0.06100
C3349       C  0.85203767  0.24793560  0.60242138    -0.00200
C3350       C  0.85032010  0.22952161  0.62910797    -0.08700
C3351       C  0.82395613  0.20794049  0.63492484     0.61700
H3352       H  0.87304358  0.21708396  0.67097732     0.12400
H3353       H  0.87841491  0.28080208  0.57757315     0.12400
C3354       C  0.92742743  0.29028817  0.61405542     0.61900
F3355       F  0.82958615  0.18834089  0.65911331    -0.23200
F3356       F  0.81879843  0.19037254  0.60928771    -0.20600
F3357       F  0.79819214  0.22453252  0.64180257    -0.20200
F3358       F  0.95340981  0.27388324  0.60757594    -0.20300
F3359       F  0.93226280  0.30808854  0.63963736    -0.20600
F3360       F  0.92194057  0.30973253  0.58972171    -0.23300
C3361       C  0.59512072  0.25442474  0.61978008    -0.06100
C3362       C  0.60340434  0.24627967  0.64967541    -0.00200
C3363       C  0.63396433  0.23745916  0.65534557    -0.08800
C3364       C  0.65521749  0.23981807  0.63146563    -0.06100
C3365       C  0.64704384  0.24846318  0.60163787    -0.00200
C3366       C  0.61598100  0.25528462  0.59550018    -0.08700
C3367       C  0.60412932  0.26318425  0.56376602     0.61700
H3368       H  0.57169184  0.25997289  0.61535379     0.12400
H3369       H  0.67866337  0.23419860  0.63601038     0.12400
C3370       C  0.64428828  0.22386400  0.68562794     0.61900
F3371       F  0.57356139  0.27034735  0.56385976    -0.23200
F3372       F  0.60769250  0.23834367  0.54473724    -0.20600
F3373       F  0.61953989  0.28814877  0.55208937    -0.20200
F3374       F  0.62545478  0.19982062  0.69355374    -0.20300
F3375       F  0.64382686  0.24578988  0.70827625    -0.20600
F3376       F  0.67359166  0.21259085  0.68403800    -0.23300
C3377       C  0.61927371  0.25046002  0.90644711    -0.06100
C3378       C  0.64969134  0.25061652  0.89663033    -0.00200
C3379       C  0.65570943  0.25158278  0.86457341    -0.08800
C3380       C  0.63103105  0.25296098  0.84430034    -0.06100
C3381       C  0.60059591  0.25240115  0.85411498    -0.00200
C3382       C  0.59459766  0.25096041  0.88613252    -0.08700
C3383       C  0.56271063  0.24939553  0.89963845     0.61700
H3384       H  0.61471218  0.24974210  0.93068895     0.12400
H3385       H  0.63561215  0.25428085  0.82008728     0.12400
C3386       C  0.68761490  0.25097970  0.85097160     0.61900
F3387       F  0.56291494  0.24786338  0.93123295    -0.23200
F3388       F  0.54808019  0.22357824  0.88921436    -0.20600
F3389       F  0.54633393  0.27505646  0.89167301    -0.20200
F3390       F  0.68739987  0.25189877  0.81934082    -0.20300
F3391       F  0.70396655  0.27605776  0.86078900    -0.20600
F3392       F  0.70221154  0.22434428  0.85946240    -0.23300
C3393       C  0.86964317  0.25735877  0.84487863    -0.06100
C3394       C  0.89929473  0.24968938  0.85357206    -0.00200
C3395       C  0.90492324  0.24127633  0.88460338    -0.08800
C3396       C  0.88039962  0.24073145  0.90513604    -0.06100
C3397       C  0.85081775  0.24887500  0.89650747    -0.00200
C3398       C  0.84523467  0.25721660  0.86548775    -0.08700
C3399       C  0.81406204  0.26617665  0.85342664     0.61700
H3400       H  0.86562299  0.26384826  0.82138794     0.12400
H3401       H  0.88435819  0.23413444  0.92861263     0.12400
C3402       C  0.93629551  0.23326312  0.89691160     0.61900
F3403       F  0.81509625  0.27588234  0.82330916    -0.23200
F3404       F  0.80236573  0.28995545  0.87045532    -0.20600
F3405       F  0.79475044  0.24128970  0.85470156    -0.20200
F3406       F  0.95485269  0.25871493  0.89579875    -0.20300
F3407       F  0.94897533  0.20995546  0.88003546    -0.20600
F3408       F  0.93532615  0.22350459  0.92701855    -0.23300
C3409       C  0.84755491  0.37789517  0.51762466    -0.06100
C3410       C  0.85472946  0.34926548  0.50507058    -0.00200
C3411       C  0.88152278  0.34715690  0.98533582    -0.08800
C3412       C  0.90269461  0.37113131  0.98685358    -0.06100
C3413       C  0.89797188  0.39769468  0.50585228    -0.00200
C3414       C  0.86865972  0.40205479  0.51878284    -0.08700
C3415       C  0.85963193  0.43140881  0.53480086     0.61700
H3416       H  0.82499831  0.38124294  0.52682659     0.12400
H3417       H  0.92480291  0.36811935  0.97659284     0.12400
C3418       C  0.88968452  0.31869672  0.96710104     0.61900
F3419       F  0.83177367  0.42887731  0.54919508    -0.23200
F3420       F  0.85484413  0.45547976  0.00859494    -0.20600
F3421       F  0.88097299  0.43861825  0.55679137    -0.20200
F3422       F  0.86736013  0.31283973  0.94570606    -0.20300
F3423       F  0.89430680  0.29176080  0.50576511    -0.20600
F3424       F  0.91684963  0.32206954  0.95150570    -0.23300
C3425       C  0.87605690  0.15121714  0.51437313    -0.06100
C3426       C  0.85063706  0.14645512  0.49575290    -0.00200
C3427       C  0.85231638  0.12258827  0.97858816    -0.08800
C3428       C  0.87580485  0.10091296  0.98062598    -0.06100
C3429       C  0.89832435  0.10317630  0.49811083    -0.00200
C3430       C  0.89988133  0.13005295  0.51615232    -0.08700
C3431       C  0.92571682  0.13608234  0.53831066     0.61700
H3432       H  0.87688129  0.17175066  0.52808111     0.12400
H3433       H  0.87547366  0.08104555  0.96595179     0.12400
C3434       C  0.82817738  0.11914945  0.95400618     0.61900
F3435       F  0.91992487  0.16095699  0.55689600    -0.23200
F3436       F  0.95411038  0.14308774  0.02437657    -0.20600
F3437       F  0.92979459  0.11097962  0.55699175    -0.20200
F3438       F  0.82772965  0.14507309  0.93589644    -0.20300
F3439       F  0.79668863  0.10823735  0.47104561    -0.20600
F3440       F  0.83377049  0.09437007  0.93526893    -0.23300
C3441       C  0.62541143  0.39937351  0.01762038    -0.06100
C3442       C  0.60154826  0.39764358  0.49718389    -0.00200
C3443       C  0.59926995  0.36997564  0.48047244    -0.08800
C3444       C  0.62321986  0.34868506  0.48224324    -0.06100
C3445       C  0.64982502  0.35437988  0.49908053    -0.00200
C3446       C  0.64977722  0.37862261  0.01902273    -0.08700
C3447       C  0.67736788  0.38665132  0.03825279     0.61700
H3448       H  0.62696092  0.42083038  0.02974979     0.12400
H3449       H  0.62141715  0.32729412  0.47003210     0.12400
C3450       C  0.57235977  0.36323341  0.45983640     0.61900
F3451       F  0.67314452  0.41325786  0.05472548    -0.23200
F3452       F  0.70241817  0.39093594  0.01969947    -0.20600
F3453       F  0.68306652  0.36342884  0.05884180    -0.20200
F3454       F  0.56671600  0.38803077  0.44106470    -0.20300
F3455       F  0.54692547  0.35702209  0.47731073    -0.20600
F3456       F  0.57766240  0.33827550  0.44124653    -0.23300
C3457       C  0.65505215  0.12033913  0.51285578    -0.06100
C3458       C  0.64696989  0.14917386  0.50127258    -0.00200
C3459       C  0.61855257  0.15219337  0.99187591    -0.08800
C3460       C  0.59768099  0.12804327  0.99350339    -0.06100
C3461       C  0.60387009  0.10095964  0.50518927    -0.00200
C3462       C  0.63435337  0.09594555  0.51465524    -0.08700
C3463       C  0.64538397  0.06558113  0.52736738     0.61700
H3464       H  0.67816383  0.11681621  0.52032931     0.12400
H3465       H  0.57416364  0.13265308  0.98864034     0.12400
C3466       C  0.60723724  0.18317682  0.98098298     0.61900
F3467       F  0.67975118  0.06017614  0.02160032    -0.23200
F3468       F  0.64583318  0.04166815  0.98871498    -0.20600
F3469       F  0.62642008  0.05597151  0.55062223    -0.20200
F3470       F  0.62454632  0.19306128  0.95650329    -0.20300
F3471       F  0.60624212  0.20712738  0.49274977    -0.20600
F3472       F  0.57849820  0.17898902  0.46091927    -0.23300
C3473       C  0.84605369  0.48915779  0.87794314    -0.06100
C3474       C  0.85083130  0.00291428  0.85260305    -0.00200
C3475       C  0.87867412  0.01898864  0.84921786    -0.08800
C3476       C  0.90016227  0.01764402  0.87289064    -0.06100
C3477       C  0.89474744  0.00145141  0.90004280    -0.00200
C3478       C  0.86723221  0.48773317  0.90192581    -0.08700
C3479       C  0.85864232  0.47029537  0.93070729     0.61700
H3480       H  0.82419237  0.47817966  0.88058204     0.12400
H3481       H  0.92155101  0.02959061  0.87041103     0.12400
C3482       C  0.88579593  0.03792608  0.82108839     0.61900
F3483       F  0.83214868  0.95135393  0.92914098    -0.23200
F3484       F  0.85490119  0.98757964  0.95669292    -0.20600
F3485       F  0.88050654  0.44860497  0.93709700    -0.20200
F3486       F  0.86218339  0.05786198  0.81519743    -0.20300
F3487       F  0.89298193  0.51577083  0.79379353    -0.20600
F3488       F  0.91594142  0.55224244  0.82067364    -0.23300
C3489       C  0.59857055  0.01601330  0.87209478    -0.06100
C3490       C  0.60154437  0.99613852  0.89710970    -0.00200
C3491       C  0.62826014  0.47847498  0.89978145    -0.08800
C3492       C  0.65039104  0.48074679  0.87654718    -0.06100
C3493       C  0.64617138  0.99793956  0.85054784    -0.00200
C3494       C  0.62028772  0.01712508  0.84851059    -0.08700
C3495       C  0.61579766  0.03921131  0.82202833     0.61700
H3496       H  0.57900663  0.03091875  0.87127333     0.12400
H3497       H  0.66983428  0.46565335  0.87675075     0.12400
C3498       C  0.63168039  0.45402310  0.92431128     0.61900
F3499       F  0.59125718  0.05832788  0.82668160    -0.23200
F3500       F  0.61050974  0.02315201  0.79539661    -0.20600
F3501       F  0.64134088  0.05726102  0.81850061    -0.20200
F3502       F  0.60609132  0.43571097  0.92483071    -0.20300
F3503       F  0.63567216  0.46728193  0.95263964    -0.20600
F3504       F  0.65653523  0.43548209  0.91901942    -0.23300
C3505       C  0.62141975  0.47294975  0.60305414    -0.06100
C3506       C  0.60330437  0.99901082  0.60154263    -0.00200
C3507       C  0.60848794  0.02449845  0.62071248    -0.08800
C3508       C  0.63077302  0.02220059  0.64342590    -0.06100
C3509       C  0.64876286  0.99616656  0.64683016    -0.00200
C3510       C  0.64440260  0.47187200  0.62549321    -0.08700
C3511       C  0.66490421  0.44414883  0.62770635     0.61700
H3512       H  0.61873199  0.45420840  0.58716813     0.12400
H3513       H  0.63512585  0.04151826  0.65792349     0.12400
C3514       C  0.59180484  0.05472705  0.61797985     0.61900
F3515       F  0.65404274  0.42006580  0.61045667    -0.23200
F3516       F  0.66140734  0.93155661  0.66037628    -0.20600
F3517       F  0.69358439  0.45162939  0.61725783    -0.20200
F3518       F  0.57121931  0.05715424  0.64169211    -0.20300
F3519       F  0.56714647  0.55370891  0.59444404    -0.20600
F3520       F  0.61239265  0.07856065  0.61986048    -0.23300
C3521       C  0.90366930  0.48892811  0.62979817    -0.06100
C3522       C  0.89743722  0.00035302  0.60168669    -0.00200
C3523       C  0.86812596  0.01298326  0.59673553    -0.08800
C3524       C  0.84594338  0.00980983  0.61966661    -0.06100
C3525       C  0.85243059  0.99723716  0.64846271    -0.00200
C3526       C  0.88179895  0.48625584  0.65305407    -0.08700
C3527       C  0.89112823  0.47138903  0.68308840     0.61700
H3528       H  0.92649807  0.48139998  0.63411413     0.12400
H3529       H  0.82323762  0.01802667  0.61531645     0.12400
C3530       C  0.86029462  0.03152934  0.56841393     0.61900
F3531       F  0.92027052  0.45982473  0.68202853    -0.23200
F3532       F  0.87169085  0.44749352  0.68981170    -0.20600
F3533       F  0.89172260  0.99367655  0.70697933    -0.20200
F3534       F  0.85796265  0.51232912  0.54161174    -0.20300
F3535       F  0.88338584  0.05196080  0.56189550    -0.20600
F3536       F  0.83406114  0.04840047  0.57252231    -0.23300
C3537       C  0.51829536  0.15242481  0.87670546    -0.06100
C3538       C  0.49561511  0.15081916  0.85444016    -0.00200
C3539       C  0.96968879  0.13187779  0.85920857    -0.08800
C3540       C  0.97147913  0.10926080  0.88210491    -0.06100
C3541       C  0.49992861  0.10577093  0.90075316    -0.00200
C3542       C  0.52076455  0.13052512  0.90009284    -0.08700
C3543       C  0.54573474  0.13391467  0.92358890     0.61700
H3544       H  0.53456951  0.17082077  0.87519503     0.12400
H3545       H  0.95203914  0.09491213  0.88704532     0.12400
C3546       C  0.94047625  0.13598684  0.84129375     0.61900
F3547       F  0.56578059  0.15710368  0.91597357    -0.23200
F3548       F  0.56214008  0.10712660  0.92584773    -0.20600
F3549       F  0.53289990  0.14083662  0.95152506    -0.20200
F3550       F  0.94493596  0.12694267  0.81140953    -0.20300
F3551       F  0.93167246  0.16624664  0.84158888    -0.20600
F3552       F  0.91697962  0.11881675  0.85345914    -0.23300
C3553       C  0.52713913  0.38980501  0.88459075    -0.06100
C3554       C  0.49895237  0.40009471  0.89519408    -0.00200
C3555       C  0.97139391  0.38774824  0.88334483    -0.08800
C3556       C  0.97254517  0.36530505  0.86042269    -0.06100
C3557       C  0.50217245  0.35527506  0.84940640    -0.00200
C3558       C  0.52928397  0.36685351  0.86228627    -0.08700
C3559       C  0.56019116  0.35488927  0.85273753     0.61700
H3560       H  0.54747817  0.39982484  0.89408772     0.12400
H3561       H  0.95182644  0.35496336  0.85206652     0.12400
C3562       C  0.94106590  0.39861998  0.89554838     0.61900
F3563       F  0.58352591  0.36933707  0.86821055    -0.23200
F3564       F  0.56445460  0.35951452  0.82179777    -0.20600
F3565       F  0.56202923  0.32404232  0.85892867    -0.20200
F3566       F  0.93847865  0.42981333  0.89139158    -0.20300
F3567       F  0.93906791  0.39206708  0.92632772    -0.20600
F3568       F  0.91695144  0.38470373  0.88086951    -0.23300
C3569       C  0.52025710  0.37206673  0.59692226    -0.06100
C3570       C  0.49959620  0.39617008  0.59995771    -0.00200
C3571       C  0.97774956  0.39504733  0.62454233    -0.08800
C3572       C  0.97900888  0.37124654  0.64585242    -0.06100
C3573       C  0.50152297  0.34891605  0.64388136    -0.00200
C3574       C  0.52141987  0.34811125  0.61835981    -0.08700
C3575       C  0.54334024  0.32201013  0.61324283     0.61700
H3576       H  0.53540120  0.37207775  0.57740961     0.12400
H3577       H  0.96380242  0.37125689  0.66532912     0.12400
C3578       C  0.95396805  0.41959233  0.62835367     0.61900
F3579       F  0.56411452  0.32860998  0.59040204    -0.23200
F3580       F  0.52713862  0.29638295  0.60468425    -0.20600
F3581       F  0.55942092  0.31593821  0.63965122    -0.20200
F3582       F  0.93941700  0.42506461  0.60090286    -0.20300
F3583       F  0.96791769  0.44594837  0.63844841    -0.20600
F3584       F  0.93205125  0.41110075  0.64941161    -0.23300
C3585       C  0.98058681  0.12212773  0.65087415    -0.06100
C3586       C  0.50253370  0.14664900  0.64952367    -0.00200
C3587       C  0.52636594  0.14430068  0.62780550    -0.08800
C3588       C  0.52529196  0.12067632  0.60609158    -0.06100
C3589       C  0.50188193  0.09900164  0.60605254    -0.00200
C3590       C  0.97935623  0.09892170  0.62866909    -0.08700
C3591       C  0.95553665  0.07394279  0.63143275     0.61700
H3592       H  0.96514346  0.12159288  0.67014255     0.12400
H3593       H  0.54298312  0.11872201  0.58900367     0.12400
C3594       C  0.55331994  0.16594962  0.62804826     0.61900
F3595       F  0.93410174  0.08081270  0.65341630    -0.23200
F3596       F  0.96921912  0.04669213  0.63938344    -0.20600
F3597       F  0.94037508  0.07038660  0.60405338    -0.20200
F3598       F  0.56595280  0.16678898  0.65694319    -0.20300
F3599       F  0.54407406  0.19492579  0.61978896    -0.20600
F3600       F  0.57572200  0.15688880  0.60779299    -0.23300
O3601       O  0.50101266  0.54663094  0.08911285    -0.80500
O3602       O  0.49777062  0.55273871  0.41401137    -0.82000
O3603       O  0.55259505  0.58385656  0.00199035    -0.79000
O3604       O  0.95330904  0.58882708  0.00105878    -0.77400
O3605       O  0.91609674  0.55266012  0.00056285    -0.79200
O3606       O  0.58777381  0.54583516  0.00242008    -0.80100
O3607       O  0.49821861  0.58889776  0.45185563    -0.81500
O3608       O  0.50316617  0.58443737  0.05289332    -0.81800
Eu3609     Eu  0.50200779  0.56071474  0.00179942     2.39200
O3610       O  0.97022556  0.53134642  0.46942324    -0.89300
O3611       O  0.53148044  0.52782121  0.03226950    -0.92900
C3612       C  0.50205586  0.57490986  0.08082630     1.01800
C3613       C  0.49758310  0.58054755  0.42363118     1.01600
C3614       C  0.58025271  0.57424390  0.00238611     1.01600
C3615       C  0.92516958  0.58077306  0.00111236     0.99400
H3616       H  0.54320496  0.54478017  0.45615201     0.29200
O3617       O  0.53049938  0.53187955  0.46870818    -1.01700
H3618       H  0.95815259  0.54370497  0.04373699     0.29200
O3619       O  0.97048523  0.53086547  0.03082748    -1.04200
O3620       O  0.50023161  0.95190618  0.41113264    -0.81400
O3621       O  0.50032464  0.94834374  0.08731892    -0.81000
O3622       O  0.58554669  0.49946994  0.44920697    -0.79400
O3623       O  0.91298382  0.50151178  0.45134803    -0.82700
O3624       O  0.91356304  0.50147642  0.04937169    -0.80600
O3625       O  0.58654094  0.49521659  0.05064024    -0.79200
O3626       O  0.54773302  0.91039508  0.99918601    -0.80800
O3627       O  0.94819215  0.91372523  0.00139908    -0.82700
O3628       O  0.58510872  0.94646652  0.99882313    -0.79400
O3629       O  0.91252892  0.95125252  0.00328135    -0.82100
O3630       O  0.54955866  0.50083987  0.41193241    -0.77800
O3631       O  0.54998734  0.49568650  0.08794422    -0.77900
O3632       O  0.94977758  0.50027276  0.08642759    -0.77500
O3633       O  0.94870980  0.50116356  0.41365357    -0.81000
O3634       O  0.50032327  0.91408057  0.44742716    -0.80400
O3635       O  0.49926077  0.91191540  0.04989038    -0.78800
Eu3636     Eu  0.49907945  0.50165431  0.43717682     2.39800
Eu3637     Eu  0.49974877  0.49703751  0.06281057     2.39600
Eu3638     Eu  0.56114679  0.49658416  0.00052185     2.38400
Eu3639     Eu  0.93877234  0.50110883  0.99960784     2.39900
Eu3640     Eu  0.49876499  0.93759357  0.99943134     2.39800
O3641       O  0.96905595  0.96879872  0.03027625    -0.93200
O3642       O  0.53100051  0.96960499  0.46834903    -0.92100
C3643       C  0.50022381  0.92355887  0.41939686     1.02000
C3644       C  0.49961836  0.92035079  0.07819649     1.00700
C3645       C  0.57752361  0.49967476  0.42097931     1.00100
C3646       C  0.92082713  0.50155242  0.42305653     1.02100
C3647       C  0.92177222  0.50152643  0.07754759     1.01000
C3648       C  0.57790477  0.49536699  0.07884064     0.99900
C3649       C  0.57591069  0.91845906  0.99895422     0.99900
C3650       C  0.92038486  0.92290136  0.00339689     1.02500
H3651       H  0.54311292  0.95402836  0.04311375     0.29900
O3652       O  0.53056807  0.96720346  0.03073547    -1.05300
H3653       H  0.95605087  0.95771674  0.45471898     0.32000
O3654       O  0.96886196  0.97033767  0.46735112    -1.07900
O3655       O  0.50169774  0.69638664  0.16452941    -0.80500
O3656       O  0.49701409  0.70064947  0.33832179    -0.82000
O3657       O  0.54946224  0.66151347  0.25386734    -0.79000
O3658       O  0.94912728  0.66394968  0.25128579    -0.77400
O3659       O  0.91346258  0.70142724  0.24894966    -0.79200
O3660       O  0.58614382  0.69853496  0.25331499    -0.80100
O3661       O  0.49677960  0.66261890  0.30239942    -0.81500
O3662       O  0.50001159  0.65988901  0.20206831    -0.81800
Eu3663     Eu  0.49907246  0.68645690  0.25171343     2.39200
O3664       O  0.96920075  0.71988706  0.28056706    -0.89300
O3665       O  0.53061202  0.71689422  0.22079589    -0.92900
C3666       C  0.50137706  0.66839952  0.17381878     1.01800
C3667       C  0.49620936  0.67240556  0.33015446     1.01600
C3668       C  0.57747353  0.67042736  0.25445085     1.01600
C3669       C  0.92123660  0.67325163  0.25037972     0.99400
H3670       H  0.54220299  0.70551438  0.29555660     0.29200
O3671       O  0.52991445  0.71804176  0.28228306    -1.01700
H3672       H  0.95739659  0.70571613  0.20605694     0.29200
O3673       O  0.96988947  0.71858090  0.21880551    -1.04200
O3674       O  0.50026643  0.80081044  0.33680428    -0.81400
O3675       O  0.50216681  0.79679622  0.16223190    -0.81000
O3676       O  0.58515169  0.74903923  0.30179796    -0.79400
O3677       O  0.91415704  0.74870302  0.29966141    -0.82700
O3678       O  0.91444801  0.74993501  0.19823262    -0.80600
O3679       O  0.58733037  0.74512115  0.20184783    -0.79200
O3680       O  0.54905919  0.83643237  0.24920103    -0.80800
O3681       O  0.95012524  0.83773266  0.24577521    -0.82700
O3682       O  0.58569451  0.79957492  0.24983451    -0.79400
O3683       O  0.91373991  0.80062271  0.24735510    -0.82100
O3684       O  0.54826412  0.74974669  0.33799319    -0.77800
O3685       O  0.55127789  0.74383139  0.16470366    -0.77900
O3686       O  0.95179576  0.74890108  0.16202897    -0.77500
O3687       O  0.95024350  0.74967150  0.33673234    -0.81000
O3688       O  0.50053675  0.83707057  0.29902209    -0.80400
O3689       O  0.49980832  0.83454674  0.19819856    -0.78800
Eu3690     Eu  0.49936835  0.75021392  0.31212936     2.39800
Eu3691     Eu  0.50064789  0.74721829  0.18857963     2.39600
Eu3692     Eu  0.56122762  0.74866066  0.25119553     2.38400
Eu3693     Eu  0.93892809  0.75061712  0.24883849     2.39900
Eu3694     Eu  0.49978041  0.81095641  0.24920690     2.39800
O3695       O  0.96997307  0.78077271  0.21717942    -0.93200
O3696       O  0.53057595  0.78071570  0.28109261    -0.92100
C3697       C  0.50067226  0.82874966  0.32732479     1.02000
C3698       C  0.50132584  0.82507990  0.17031509     1.00700
C3699       C  0.57626613  0.74932713  0.32992798     1.00100
C3700       C  0.92249042  0.74836976  0.32803363     1.02100
C3701       C  0.92361897  0.74960460  0.17017126     1.01000
C3702       C  0.57923125  0.74338048  0.17367143     0.99900
C3703       C  0.57694629  0.82777788  0.24913512     0.99900
C3704       C  0.92218605  0.82877310  0.24593668     1.02500
H3705       H  0.54398554  0.79138554  0.20611748     0.29900
O3706       O  0.53105141  0.77916748  0.21905928    -1.05300
H3707       H  0.95593496  0.79482669  0.29228164     0.32000
O3708       O  0.96889969  0.78203493  0.27995052    -1.07900
O3709       O  0.83634263  0.00000695  0.20169941    -0.80500
O3710       O  0.66355111  0.99769895  0.19743939    -0.82000
O3711       O  0.75239941  0.94701677  0.16383977    -0.79000
O3712       O  0.74999256  0.54868455  0.16208420    -0.77400
O3713       O  0.74934826  0.58619897  0.19858456    -0.79200
O3714       O  0.75125752  0.91038180  0.20120852    -0.80100
O3715       O  0.70104441  0.99601078  0.16115270    -0.81500
O3716       O  0.80142743  0.99941512  0.16339540    -0.81800
Eu3717     Eu  0.75039882  0.99800954  0.18750342     2.39200
O3718       O  0.71916182  0.53055392  0.21792423    -0.89300
O3719       O  0.78090382  0.96767555  0.21960155    -0.92900
C3720       C  0.82912995  0.99992812  0.17324070     1.01800
C3721       C  0.67292730  0.99643733  0.16945577     1.01600
C3722       C  0.75232254  0.91898168  0.17300349     1.01600
C3723       C  0.74977705  0.57681137  0.17065245     0.99400
H3724       H  0.70730710  0.95377173  0.20598838     0.29200
O3725       O  0.71955254  0.96685878  0.21870359    -1.01700
H3726       H  0.79308133  0.54353597  0.20583653     0.29200
O3727       O  0.78040240  0.53091665  0.21865781    -1.04200
O3728       O  0.66167443  0.99669728  0.29829164    -0.81400
O3729       O  0.83462417  0.00065431  0.30116446    -0.81000
O3730       O  0.70069804  0.91054404  0.25101406    -0.79400
O3731       O  0.69934608  0.58734977  0.24999308    -0.82700
O3732       O  0.79969400  0.58748257  0.24836481    -0.80600
O3733       O  0.80115257  0.91269305  0.25080556    -0.79200
O3734       O  0.74838541  0.94921234  0.33826290    -0.80800
O3735       O  0.74813142  0.54990308  0.33756290    -0.82700
O3736       O  0.75077943  0.91204249  0.30154000    -0.79400
O3737       O  0.74947562  0.58654934  0.30024783    -0.82100
O3738       O  0.66372341  0.94706226  0.24899532    -0.77800
O3739       O  0.83661923  0.95065280  0.25086479    -0.77900
O3740       O  0.83605044  0.55060331  0.24962737    -0.77500
O3741       O  0.66372338  0.54940802  0.24990209    -0.81000
O3742       O  0.69744730  0.99741367  0.33613442    -0.80400
O3743       O  0.79829724  0.00048173  0.33836937    -0.78800
Eu3744     Eu  0.68762002  0.99797615  0.24854335     2.39800
Eu3745     Eu  0.81010282  0.99964772  0.25101020     2.39600
Eu3746     Eu  0.75026863  0.93651882  0.25083595     2.38400
Eu3747     Eu  0.74942689  0.56208465  0.24940894     2.39900
Eu3748     Eu  0.74821691  0.99920649  0.31249785     2.39800
O3749       O  0.77994714  0.53149472  0.28108258    -0.93200
O3750       O  0.71848883  0.96782196  0.28060660    -0.92100
C3751       C  0.66970957  0.99705563  0.32662051     1.02000
C3752       C  0.82630173  0.00103940  0.32935952     1.00700
C3753       C  0.67266753  0.91899368  0.25024738     1.00100
C3754       C  0.67158112  0.57779154  0.25004331     1.02100
C3755       C  0.82775016  0.57872368  0.24843417     1.01000
C3756       C  0.82892584  0.92231967  0.25088404     0.99900
C3757       C  0.74992946  0.92111932  0.32956365     0.99900
C3758       C  0.74882473  0.57794682  0.32850676     1.02500
H3759       H  0.79277620  0.95591441  0.29517973     0.29900
O3760       O  0.77988773  0.96825208  0.28224415    -1.05300
H3761       H  0.70597125  0.54291003  0.29269654     0.32000
O3762       O  0.71892391  0.53032113  0.28015846    -1.07900
O3763       O  0.69802576  0.66422357  0.50017358    -0.80500
O3764       O  0.70277277  0.83741093  0.50009327    -0.82000
O3765       O  0.66370898  0.74706237  0.04977743    -0.79000
O3766       O  0.66417266  0.75291833  0.44949810    -0.77400
O3767       O  0.70073411  0.75140080  0.41295446    -0.79200
O3768       O  0.69935235  0.74675351  0.08728734    -0.80100
O3769       O  0.66492424  0.80189205  0.50031594    -0.81500
O3770       O  0.66219040  0.70181580  0.50000856    -0.81800
Eu3771     Eu  0.68865501  0.75124464  0.50008221     2.39200
O3772       O  0.72046034  0.78151851  0.46956146    -0.89300
O3773       O  0.71857564  0.71779198  0.03047074    -0.92900
C3774       C  0.67023687  0.67352600  0.49978362     1.01800
C3775       C  0.67454471  0.82975076  0.50012234     1.01600
C3776       C  0.67153280  0.74657103  0.07804195     1.01600
C3777       C  0.67281461  0.75248999  0.42125242     0.99400
H3778       H  0.70616530  0.79190037  0.04463351     0.29200
O3779       O  0.71883694  0.77948385  0.03172963    -0.99300
H3780       H  0.70525011  0.70690783  0.45661820     0.29200
O3781       O  0.71834067  0.71918568  0.46930720    -1.04200
O3782       O  0.80248784  0.83563026  0.50140808    -0.81400
O3783       O  0.79805597  0.66088720  0.49933826    -0.81000
O3784       O  0.74922930  0.79667754  0.08884311    -0.79400
O3785       O  0.75079532  0.80018505  0.41376624    -0.82700
O3786       O  0.74767166  0.69829299  0.41421952    -0.80600
O3787       O  0.74765408  0.69636009  0.08610634    -0.79200
O3788       O  0.83666801  0.74936123  0.05017426    -0.80800
O3789       O  0.83523113  0.74756686  0.44782734    -0.82700
O3790       O  0.79970069  0.74904555  0.08674494    -0.79400
O3791       O  0.79814769  0.74699545  0.41177466    -0.82100
O3792       O  0.75094961  0.83447028  0.05266983    -0.77800
O3793       O  0.74777378  0.66000427  0.04853561    -0.77900
O3794       O  0.74656059  0.66149411  0.45130689    -0.77500
O3795       O  0.75201564  0.83696919  0.45094646    -0.81000
O3796       O  0.83800983  0.79780809  0.50068915    -0.80400
O3797       O  0.83531686  0.69706809  0.49821579    -0.78800
Eu3798     Eu  0.75209612  0.81146347  0.50081431     2.39800
Eu3799     Eu  0.74869173  0.68760531  0.50032668     2.39600
Eu3800     Eu  0.74934579  0.74754459  0.06232028     2.38400
Eu3801     Eu  0.74981463  0.74943766  0.43838551     2.39900
Eu3802     Eu  0.81183230  0.74798061  0.49921929     2.39800
O3803       O  0.78015323  0.71751196  0.46875203    -0.93200
O3804       O  0.78022207  0.77902966  0.03177521    -0.92100
C3805       C  0.83025436  0.82621760  0.50116765     1.02000
C3806       C  0.82622899  0.66900263  0.49848818     1.00700
C3807       C  0.75008993  0.82492244  0.08062266     1.00100
C3808       C  0.75129583  0.82822269  0.42285786     1.02100
C3809       C  0.74641419  0.67013413  0.42322712     1.01000
C3810       C  0.74713352  0.66842436  0.07669322     0.99900
C3811       C  0.82778312  0.74926655  0.07832433     0.99900
C3812       C  0.82616215  0.74709869  0.41970199     1.02500
H3813       H  0.79302715  0.70431778  0.04379279     0.29900
O3814       O  0.78046067  0.71717772  0.03112145    -1.05300
H3815       H  0.79457271  0.79251642  0.45602391     0.32000
O3816       O  0.78169417  0.78003877  0.46885247    -1.07900
C3817       C  0.72163409  0.60877724  0.13422991    -0.06100
C3818       C  0.74966736  0.60002435  0.14647886    -0.00200
C3819       C  0.77682653  0.61315548  0.13531341    -0.08800
C3820       C  0.77497299  0.63456717  0.11150439    -0.06100
C3821       C  0.74695124  0.64420878  0.09999152    -0.00200
C3822       C  0.71976152  0.63104035  0.11112659    -0.08700
C3823       C  0.68910083  0.64040553  0.09854936     0.61700
H3824       H  0.70122338  0.59816917  0.14312638     0.12400
H3825       H  0.79544758  0.64399382  0.10166400     0.12400
C3826       C  0.80748406  0.60484397  0.14872145     0.61900
F3827       F  0.66552148  0.62511223  0.11290346    -0.23200
F3828       F  0.68781907  0.63392390  0.06768958    -0.20600
F3829       F  0.68487765  0.67135666  0.10277837    -0.20200
F3830       F  0.81347563  0.57434987  0.14354948    -0.20300
F3831       F  0.80739499  0.61019741  0.17982897    -0.20600
F3832       F  0.83072412  0.62193916  0.13593377    -0.23300
C3833       C  0.72980670  0.87251537  0.15036462    -0.06100
C3834       C  0.75270489  0.89481493  0.14943210    -0.00200
C3835       C  0.77525567  0.89348858  0.12636612    -0.08800
C3836       C  0.77349867  0.87024665  0.10430835    -0.06100
C3837       C  0.75042620  0.84818386  0.10502355    -0.00200
C3838       C  0.72813986  0.84914230  0.12839582    -0.08700
C3839       C  0.70234905  0.82608060  0.12982370     0.61700
H3840       H  0.71296890  0.87376692  0.16836977     0.12400
H3841       H  0.79031534  0.86899843  0.08627864     0.12400
C3842       C  0.80149390  0.91597174  0.12544411     0.61900
F3843       F  0.68029891  0.83458965  0.15066986    -0.23200
F3844       F  0.71350294  0.79789675  0.13849688    -0.20600
F3845       F  0.68858787  0.82351207  0.10158065    -0.20200
F3846       F  0.81552714  0.91711411  0.15366328    -0.20300
F3847       F  0.79094851  0.94467639  0.11780041    -0.20600
F3848       F  0.82313123  0.90765071  0.10413105    -0.23300
C3849       C  0.72448774  0.89142259  0.37020609    -0.06100
C3850       C  0.75101393  0.89751259  0.35356501    -0.00200
C3851       C  0.77803938  0.88140881  0.36029865    -0.08800
C3852       C  0.77733290  0.85876814  0.38315066    -0.06100
C3853       C  0.75062211  0.85226589  0.39933028    -0.00200
C3854       C  0.72377545  0.86874370  0.39298577    -0.08700
C3855       C  0.69451545  0.86198875  0.41004473     0.61700
H3856       H  0.70426405  0.90445614  0.36503732     0.12400
H3857       H  0.79763981  0.84599194  0.38862295     0.12400
C3858       C  0.80750033  0.88857223  0.34373603     0.61900
F3859       F  0.67039005  0.87857993  0.39857218    -0.23200
F3860       F  0.69795472  0.86928969  0.44053424    -0.20600
F3861       F  0.68742556  0.83134500  0.40753740    -0.20200
F3862       F  0.81348235  0.91952388  0.34531935    -0.20300
F3863       F  0.80512908  0.88006687  0.31344920    -0.20600
F3864       F  0.83187947  0.87325248  0.35644470    -0.23300
C3865       C  0.72794548  0.59869534  0.37682582    -0.06100
C3866       C  0.74852654  0.60186392  0.35249023    -0.00200
C3867       C  0.76873406  0.62705314  0.35213526    -0.08800
C3868       C  0.76684288  0.64884617  0.37553161    -0.06100
C3869       C  0.74604766  0.64599800  0.39957068    -0.00200
C3870       C  0.72622761  0.62037917  0.40050673    -0.08700
C3871       C  0.70278299  0.61620620  0.42570616     0.61700
H3872       H  0.71296866  0.57907439  0.37698661     0.12400
H3873       H  0.78192499  0.66839114  0.37536467     0.12400
C3874       C  0.79243270  0.63101845  0.32738081     0.61900
F3875       F  0.68292947  0.59251714  0.41940965    -0.23200
F3876       F  0.68585506  0.64256170  0.42889539    -0.20600
F3877       F  0.71708009  0.60960023  0.45301145    -0.20200
F3878       F  0.77818271  0.63926534  0.30052630    -0.20300
F3879       F  0.80828950  0.60410275  0.32320861    -0.20600
F3880       F  0.81324849  0.65351519  0.33472182    -0.23300
C3881       C  0.90353274  0.62100056  0.23829549    -0.06100
C3882       C  0.89647558  0.64991877  0.24998129    -0.00200
C3883       C  0.86615241  0.65573295  0.25982573    -0.08800
C3884       C  0.84479216  0.63185923  0.25861189    -0.06100
C3885       C  0.85203528  0.60268325  0.24765677    -0.00200
C3886       C  0.88183804  0.59754067  0.23615009    -0.08700
C3887       C  0.89096185  0.56801768  0.22060816     0.61700
H3888       H  0.92638575  0.61696441  0.23018253     0.12400
H3889       H  0.82189572  0.63597567  0.26617787     0.12400
C3890       C  0.85586910  0.68665195  0.27184495     0.61900
F3891       F  0.91873871  0.57044776  0.20604290    -0.23200
F3892       F  0.86965650  0.56020135  0.19879400    -0.20600
F3893       F  0.89338293  0.54513552  0.24211985    -0.20200
F3894       F  0.85679782  0.70809412  0.24863065    -0.20300
F3895       F  0.87438094  0.69565277  0.29566075    -0.20600
F3896       F  0.82638171  0.68598840  0.28269585    -0.23300
C3897       C  0.90319188  0.87883377  0.26362414    -0.06100
C3898       C  0.89824300  0.85267053  0.24583385    -0.00200
C3899       C  0.87094431  0.85010825  0.22883798    -0.08800
C3900       C  0.84890065  0.87315750  0.23174537    -0.06100
C3901       C  0.85360838  0.89914030  0.24990340    -0.00200
C3902       C  0.88155890  0.90235112  0.26585988    -0.08700
C3903       C  0.88864972  0.92991512  0.28574871     0.61700
H3904       H  0.92430763  0.88057989  0.27611796     0.12400
H3905       H  0.82781165  0.87131918  0.21921585     0.12400
C3906       C  0.86554983  0.82413777  0.20648286     0.61900
F3907       F  0.91533424  0.92618779  0.30199601    -0.23200
F3908       F  0.86551892  0.93446498  0.30660258    -0.20600
F3909       F  0.89199610  0.95563338  0.26771046    -0.20200
F3910       F  0.86144588  0.79699615  0.22208611    -0.20300
F3911       F  0.89013382  0.82155800  0.18697345    -0.20600
F3912       F  0.83999459  0.82902262  0.18878144    -0.23300
C3913       C  0.59935260  0.62311561  0.23347987    -0.06100
C3914       C  0.60138471  0.64655510  0.25509123    -0.00200
C3915       C  0.62609597  0.64681467  0.27591193    -0.08800
C3916       C  0.64877674  0.62425580  0.27310112    -0.06100
C3917       C  0.64693185  0.60101468  0.25110752    -0.00200
C3918       C  0.62160745  0.60026059  0.23109740    -0.08700
C3919       C  0.61919523  0.57693670  0.20570411     0.61700
H3920       H  0.58033890  0.62331171  0.21784358     0.12400
H3921       H  0.66789717  0.62413752  0.28861408     0.12400
C3922       C  0.62756518  0.66940467  0.30220030     0.61900
F3923       F  0.61683406  0.54778317  0.21756094    -0.23200
F3924       F  0.64481023  0.57921710  0.18764682    -0.20600
F3925       F  0.59399541  0.58171425  0.18748145    -0.20200
F3926       F  0.60153710  0.66684223  0.31972984    -0.20300
F3927       F  0.63009274  0.69887380  0.29128116    -0.20600
F3928       F  0.65224961  0.66406747  0.32098590    -0.23300
C3929       C  0.62643350  0.84702662  0.26722671    -0.06100
C3930       C  0.60076250  0.85182903  0.24892048    -0.00200
C3931       C  0.59859488  0.87914870  0.23142455    -0.08800
C3932       C  0.62308479  0.89979565  0.23190245    -0.06100
C3933       C  0.64877316  0.89497241  0.25024583    -0.00200
C3934       C  0.65009201  0.86852341  0.26900780    -0.08700
C3935       C  0.67533210  0.86353861  0.29208032     0.61700
H3936       H  0.62746011  0.82643109  0.28091498     0.12400
H3937       H  0.62209600  0.92040432  0.21824640     0.12400
C3938       C  0.57062903  0.88709693  0.21268296     0.61900
F3939       F  0.66855428  0.84005033  0.31220174    -0.23200
F3940       F  0.67956399  0.88972718  0.30914240    -0.20600
F3941       F  0.70196941  0.85620101  0.27712939    -0.20200
F3942       F  0.54677448  0.89384874  0.23208122    -0.20300
F3943       F  0.56270010  0.86293890  0.19409543    -0.20600
F3944       F  0.57543065  0.91226569  0.19409796    -0.23300
C3945       C  0.87299790  0.73323223  0.15136891    -0.06100
C3946       C  0.89984208  0.74971184  0.14585312    -0.00200
C3947       C  0.90264591  0.76649872  0.11815467    -0.08800
C3948       C  0.87847749  0.76594565  0.09705184    -0.06100
C3949       C  0.85166122  0.74939403  0.10255457    -0.00200
C3950       C  0.84887046  0.73266257  0.13028703    -0.08700
C3951       C  0.82100464  0.71347812  0.13740808     0.61700
H3952       H  0.87109479  0.72052380  0.17252784     0.12400
H3953       H  0.88037566  0.77859344  0.07585653     0.12400
C3954       C  0.93074242  0.78529748  0.11082774     0.61900
F3955       F  0.82495343  0.69545796  0.16309413    -0.23200
F3956       F  0.81497383  0.69439365  0.11310285    -0.20600
F3957       F  0.79633079  0.73223197  0.14261437    -0.20200
F3958       F  0.95498143  0.76605696  0.10534110    -0.20300
F3959       F  0.93750572  0.80442293  0.13499122    -0.20600
F3960       F  0.92675652  0.80332041  0.08514361    -0.23300
C3961       C  0.59548013  0.75208318  0.12013534    -0.06100
C3962       C  0.60339715  0.74208657  0.14959078    -0.00200
C3963       C  0.63377658  0.73233185  0.15490966    -0.08800
C3964       C  0.65475456  0.73376656  0.13066148    -0.06100
C3965       C  0.64705962  0.74515353  0.10163375    -0.00200
C3966       C  0.61672735  0.75495305  0.09634107    -0.08700
C3967       C  0.60681787  0.77069234  0.06688324     0.61700
H3968       H  0.57234510  0.75883490  0.11603608     0.12400
H3969       H  0.67781271  0.72623870  0.13445025     0.12400
C3970       C  0.64449972  0.72000871  0.18558235     0.61900
F3971       F  0.57714110  0.78068114  0.06821835    -0.23200
F3972       F  0.60839730  0.75104012  0.04242643    -0.20600
F3973       F  0.62515055  0.79580589  0.06156066    -0.20200
F3974       F  0.62560520  0.69663043  0.19512730    -0.20300
F3975       F  0.64465927  0.74313353  0.20703054    -0.20600
F3976       F  0.67368483  0.70841179  0.18405040    -0.23300
C3977       C  0.61851138  0.74887057  0.40665634    -0.06100
C3978       C  0.64881203  0.75235166  0.39701291    -0.00200
C3979       C  0.65486762  0.75466892  0.36503483    -0.08800
C3980       C  0.63037375  0.75333400  0.34460532    -0.06100
C3981       C  0.60013501  0.74970145  0.35423028    -0.00200
C3982       C  0.59408237  0.74694719  0.38612821    -0.08700
C3983       C  0.56243486  0.74133812  0.39912846     0.61700
H3984       H  0.61389940  0.74721346  0.43085271     0.12400
H3985       H  0.63491934  0.75531175  0.32042626     0.12400
C3986       C  0.68658881  0.75893136  0.35166348     0.61900
F3987       F  0.56274396  0.73716950  0.43048350    -0.23200
F3988       F  0.55018480  0.71520673  0.38638948    -0.20600
F3989       F  0.54393516  0.76612388  0.39318971    -0.20200
F3990       F  0.68617340  0.76249323  0.32021543    -0.20300
F3991       F  0.69986685  0.78484085  0.36371257    -0.20600
F3992       F  0.70426668  0.73362541  0.35793331    -0.23300
C3993       C  0.86867066  0.75449068  0.34333318    -0.06100
C3994       C  0.89838656  0.74694570  0.35212086    -0.00200
C3995       C  0.90381608  0.73833812  0.38311857    -0.08800
C3996       C  0.87935724  0.73842807  0.40374175    -0.06100
C3997       C  0.84976636  0.74656296  0.39510161    -0.00200
C3998       C  0.84415813  0.75434960  0.36393484    -0.08700
C3999       C  0.81281871  0.76250505  0.35171288     0.61700
H4000       H  0.86466830  0.76078869  0.31978676     0.12400
H4001       H  0.88338176  0.73215164  0.42729156     0.12400
C4002       C  0.93491169  0.72906815  0.39521603     0.61900
F4003       F  0.81367424  0.77151685  0.32137994    -0.23200
F4004       F  0.80065736  0.78645144  0.36817310    -0.20600
F4005       F  0.79396027  0.73730145  0.35361778    -0.20200
F4006       F  0.95423448  0.75395258  0.39492002    -0.20300
F4007       F  0.94689519  0.70593661  0.37760922    -0.20600
F4008       F  0.93358300  0.71834808  0.42497749    -0.23300
C4009       C  0.84526907  0.87962333  0.01618250    -0.06100
C4010       C  0.85223508  0.85091068  0.00365536    -0.00200
C4011       C  0.88311335  0.84652149  0.48681962    -0.08800
C4012       C  0.90409169  0.87074737  0.48779147    -0.06100
C4013       C  0.89608776  0.89886765  0.00493859    -0.00200
C4014       C  0.86665469  0.90358299  0.01753867    -0.08700
C4015       C  0.85795453  0.93289630  0.03390317     0.61700
H4016       H  0.82274387  0.88310942  0.02540813     0.12400
H4017       H  0.92585565  0.86814255  0.47665554     0.12400
C4018       C  0.89164426  0.81767802  0.46959119     0.61900
F4019       F  0.82981322  0.93071432  0.04777370    -0.23200
F4020       F  0.85849979  0.95515780  0.51562134    -0.20600
F4021       F  0.87907858  0.93924381  0.05637479    -0.20200
F4022       F  0.86893096  0.80994030  0.44924557    -0.20300
F4023       F  0.89276529  0.79317517  0.00148927    -0.20600
F4024       F  0.91814829  0.82129849  0.45294657    -0.23300
C4025       C  0.88103619  0.65589325  0.01108516    -0.06100
C4026       C  0.85225639  0.64760381  0.99988292    -0.00200
C4027       C  0.84703312  0.61557330  0.48530505    -0.08800
C4028       C  0.87178621  0.59521673  0.48622459    -0.06100
C4029       C  0.90117981  0.60503729  0.00114563    -0.00200
C4030       C  0.90556097  0.63531131  0.01221580    -0.08700
C4031       C  0.93539624  0.64620081  0.02594896     0.61700
H4032       H  0.88419261  0.67891974  0.01939833     0.12400
H4033       H  0.86948643  0.57286812  0.47598236     0.12400
C4034       C  0.81788177  0.60547794  0.46973082     0.61900
F4035       F  0.93308535  0.67524263  0.03819780    -0.23200
F4036       F  0.95493517  0.64558808  0.50808654    -0.20600
F4037       F  0.94412047  0.62676613  0.04924475    -0.20200
F4038       F  0.80926755  0.62681450  0.44810197    -0.20300
F4039       F  0.79613569  0.60555064  0.99976383    -0.20600
F4040       F  0.82120158  0.57774712  0.45496755    -0.23300
C4041       C  0.63090184  0.90437254  0.51207521    -0.06100
C4042       C  0.59972920  0.89425643  0.99964246    -0.00200
C4043       C  0.59708556  0.86601798  0.98392958    -0.08800
C4044       C  0.62119067  0.84506719  0.98555801    -0.06100
C4045       C  0.64810274  0.85142718  0.00147668    -0.00200
C4046       C  0.65525367  0.88357523  0.51278143    -0.08700
C4047       C  0.68465176  0.89293921  0.52844710     0.61700
H4048       H  0.63338852  0.92638320  0.52297631     0.12400
H4049       H  0.61932196  0.82341177  0.97383154     0.12400
C4050       C  0.56960614  0.85803196  0.96460533     0.61900
F4051       F  0.68225303  0.92105345  0.54260469    -0.23200
F4052       F  0.70778327  0.89506026  0.50715416    -0.20600
F4053       F  0.69226370  0.87174588  0.55055303    -0.20200
F4054       F  0.56307917  0.88181581  0.94493253    -0.20300
F4055       F  0.54490809  0.85241951  0.98329213    -0.20600
F4056       F  0.57450924  0.83224903  0.94701175    -0.23300
C4057       C  0.65487203  0.61802712  0.99204009    -0.06100
C4058       C  0.64694845  0.64706854  0.00299650    -0.00200
C4059       C  0.61829259  0.65292391  0.48365449    -0.08800
C4060       C  0.59683547  0.62918209  0.48553243    -0.06100
C4061       C  0.60461081  0.59792263  0.00316188    -0.00200
C4062       C  0.63441990  0.59337463  0.99162125    -0.08700
C4063       C  0.64496392  0.56301878  0.97856065     0.61700
H4064       H  0.67757543  0.61465709  0.98369821     0.12400
H4065       H  0.57500822  0.63201458  0.47467434     0.12400
C4066       C  0.61137172  0.68053592  0.46377165     0.61900
F4067       F  0.66658653  0.57249272  0.54919477    -0.23200
F4068       F  0.64333783  0.54510427  0.51317433    -0.20600
F4069       F  0.64559627  0.54121486  0.00141478    -0.20200
F4070       F  0.63565448  0.68659649  0.44463216    -0.20300
F4071       F  0.62863076  0.69068838  0.05086832    -0.20600
F4072       F  0.57988382  0.67836863  0.04489328    -0.23300
C4073       C  0.84672197  0.98343191  0.37926926    -0.06100
C4074       C  0.85217547  0.50566480  0.35220388    -0.00200
C4075       C  0.88103893  0.51990207  0.34833426    -0.08800
C4076       C  0.90235956  0.51809940  0.37220666    -0.06100
C4077       C  0.89620382  0.50272623  0.39968081    -0.00200
C4078       C  0.86902329  0.98164014  0.40226489    -0.08700
C4079       C  0.86363866  0.96065251  0.42946603     0.61700
H4080       H  0.82591799  0.97045663  0.38156307     0.12400
H4081       H  0.92438087  0.52875402  0.36950253     0.12400
C4082       C  0.88977518  0.53712156  0.31947563     0.61900
F4083       F  0.83156141  0.45555775  0.42910921    -0.23200
F4084       F  0.85580030  0.49063359  0.45687112    -0.20600
F4085       F  0.88865675  0.94221334  0.43414691    -0.20200
F4086       F  0.86773668  0.55842363  0.31239245    -0.20300
F4087       F  0.88913266  0.02060966  0.29671825    -0.20600
F4088       F  0.90940596  0.05695307  0.32599781    -0.23300
C4089       C  0.59590409  0.51255433  0.36874851    -0.06100
C4090       C  0.60210334  0.49914456  0.39729596    -0.00200
C4091       C  0.62712056  0.97747088  0.39935130    -0.08800
C4092       C  0.64829960  0.97760122  0.37522118    -0.06100
C4093       C  0.64628077  0.49978127  0.34983359    -0.00200
C4094       C  0.61767402  0.51402367  0.34521691    -0.08700
C4095       C  0.61029030  0.53188226  0.31628447     0.61700
H4096       H  0.57375647  0.52243114  0.36501195     0.12400
H4097       H  0.66752250  0.96223357  0.37577262     0.12400
C4098       C  0.63148775  0.95526916  0.42576910     0.61900
F4099       F  0.58346620  0.54805998  0.31898392    -0.23200
F4100       F  0.60720080  0.51218426  0.29184482    -0.20600
F4101       F  0.63316759  0.55271439  0.31029153    -0.20200
F4102       F  0.60597291  0.93712336  0.42891119    -0.20300
F4103       F  0.63659517  0.97102269  0.45259567    -0.20600
F4104       F  0.65616021  0.93632183  0.42120903    -0.23300
C4105       C  0.62103244  0.97119046  0.10460117    -0.06100
C4106       C  0.60196542  0.49593012  0.10239057    -0.00200
C4107       C  0.61118636  0.52359206  0.11621929    -0.08800
C4108       C  0.63497678  0.52294739  0.13758986    -0.06100
C4109       C  0.64927043  0.49569584  0.14598246    -0.00200
C4110       C  0.64380310  0.96974311  0.12716380    -0.08700
C4111       C  0.66109693  0.94026114  0.13238142     0.61700
H4112       H  0.61582321  0.95127793  0.09093326     0.12400
H4113       H  0.64273197  0.54381765  0.14785866     0.12400
C4114       C  0.59560579  0.55358389  0.10877902     0.61900
F4115       F  0.65021456  0.91677429  0.11432515    -0.23200
F4116       F  0.65546909  0.43226424  0.16944987    -0.20600
F4117       F  0.69140748  0.94458912  0.12545219    -0.20200
F4118       F  0.56599764  0.55252810  0.11916694    -0.20300
F4119       F  0.58306322  0.05763678  0.08244414    -0.20600
F4120       F  0.60993399  0.57813989  0.12245723    -0.23300
C4121       C  0.90531415  0.99057544  0.13159472    -0.06100
C4122       C  0.89737481  0.50239942  0.10138193    -0.00200
C4123       C  0.86802017  0.51508874  0.09634893    -0.08800
C4124       C  0.84607757  0.51266426  0.11965413    -0.06100
C4125       C  0.85259304  0.49980563  0.14833135    -0.00200
C4126       C  0.88366430  0.98876623  0.15521878    -0.08700
C4127       C  0.89221535  0.97218813  0.18456613     0.61700
H4128       H  0.92729557  0.98036978  0.13478858     0.12400
H4129       H  0.82350272  0.52150117  0.11573078     0.12400
C4130       C  0.85989975  0.53274057  0.06747762     0.61900
F4131       F  0.92101935  0.95988195  0.18325351    -0.23200
F4132       F  0.87195960  0.94866268  0.18999838    -0.20600
F4133       F  0.89156764  0.49587505  0.20689726    -0.20200
F4134       F  0.85959844  0.02344200  0.04674027    -0.20300
F4135       F  0.88176711  0.55470194  0.06174034    -0.20600
F4136       F  0.83231762  0.54760796  0.07019774    -0.23300
C4137       C  0.52343108  0.63774234  0.36442356    -0.06100
C4138       C  0.49560662  0.64942658  0.35451694    -0.00200
C4139       C  0.97306978  0.62851717  0.35681611    -0.08800
C4140       C  0.97504804  0.60562053  0.37941467    -0.06100
C4141       C  0.49744790  0.60465507  0.40035036    -0.00200
C4142       C  0.52478956  0.61510136  0.38705732    -0.08700
C4143       C  0.55508616  0.60170228  0.39636388     0.61700
H4144       H  0.54406507  0.64619703  0.35389384     0.12400
H4145       H  0.95605755  0.59041844  0.38347695     0.12400
C4146       C  0.94434372  0.63169295  0.33790530     0.61900
F4147       F  0.57907737  0.61546673  0.38122425    -0.23200
F4148       F  0.55543610  0.57094046  0.38965877    -0.20600
F4149       F  0.55935105  0.60542628  0.42735072    -0.20200
F4150       F  0.95060006  0.62575457  0.30756457    -0.20300
F4151       F  0.93299408  0.66094869  0.34043144    -0.20600
F4152       F  0.92196756  0.61161854  0.34739436    -0.23300
C4153       C  0.52753497  0.88997252  0.38265185    -0.06100
C4154       C  0.49983672  0.90004792  0.39497274    -0.00200
C4155       C  0.97151416  0.88865632  0.38347816    -0.08800
C4156       C  0.97218437  0.86519668  0.36149467    -0.06100
C4157       C  0.50118100  0.85316808  0.35059797    -0.00200
C4158       C  0.52864987  0.86657925  0.36052797    -0.08700
C4159       C  0.55883936  0.85597948  0.34762493     0.61700
H4160       H  0.54829580  0.90059571  0.39047147     0.12400
H4161       H  0.95122188  0.85546523  0.35303247     0.12400
C4162       C  0.94147669  0.90112768  0.39486066     0.61900
F4163       F  0.58309389  0.87067337  0.36125517    -0.23200
F4164       F  0.55986031  0.86188167  0.31659294    -0.20600
F4165       F  0.56214252  0.82493304  0.35237367    -0.20200
F4166       F  0.93912433  0.93156570  0.38677842    -0.20300
F4167       F  0.93989566  0.89857094  0.42629145    -0.20600
F4168       F  0.91701928  0.88563650  0.38254091    -0.23300
C4169       C  0.52150748  0.87298125  0.10010653    -0.06100
C4170       C  0.49957970  0.89604734  0.10192448    -0.00200
C4171       C  0.97986328  0.89605581  0.12512272    -0.08800
C4172       C  0.98212244  0.87272954  0.14698435    -0.06100
C4173       C  0.50139237  0.84863411  0.14597852    -0.00200
C4174       C  0.52282177  0.84919062  0.12181219    -0.08700
C4175       C  0.54679979  0.82474102  0.11872816     0.61700
H4176       H  0.53768345  0.87382014  0.08147393     0.12400
H4177       H  0.96704697  0.87256214  0.16655194     0.12400
C4178       C  0.95675828  0.92105250  0.12995105     0.61900
F4179       F  0.56769453  0.83197860  0.09624817    -0.23200
F4180       F  0.53286983  0.79756471  0.11104400    -0.20600
F4181       F  0.56240215  0.82121493  0.14589220    -0.20200
F4182       F  0.94108056  0.92697950  0.10324585    -0.20300
F4183       F  0.97168671  0.94710482  0.13951225    -0.20600
F4184       F  0.93570419  0.91288007  0.15196472    -0.23300
C4185       C  0.97995220  0.62405548  0.14917379    -0.06100
C4186       C  0.50239675  0.64428127  0.15024229    -0.00200
C4187       C  0.52860997  0.63897029  0.13223572    -0.08800
C4188       C  0.52772045  0.61592522  0.10984877    -0.06100
C4189       C  0.50159554  0.59824211  0.10516533    -0.00200
C4190       C  0.97827802  0.60115706  0.12665840    -0.08700
C4191       C  0.95142159  0.57935993  0.12640335     0.61700
H4192       H  0.96277118  0.62532572  0.16684887     0.12400
H4193       H  0.54737548  0.61170363  0.09558419     0.12400
C4194       C  0.55723376  0.65780983  0.13637943     0.61900
F4195       F  0.92962086  0.58753081  0.14761106    -0.23200
F4196       F  0.96098499  0.55010453  0.13320255    -0.20600
F4197       F  0.93787055  0.57959096  0.09793128    -0.20200
F4198       F  0.56498515  0.65921994  0.16695545    -0.20300
F4199       F  0.55232467  0.68701361  0.12549974    -0.20600
F4200       F  0.58157321  0.64545033  0.12068313    -0.23300
O4201       O  0.50000225  0.54812511  0.58794359    -0.80500
O4202       O  0.49831285  0.55164144  0.91400557    -0.82000
O4203       O  0.55078772  0.58688969  0.50150523    -0.79000
O4204       O  0.95202296  0.58743259  0.50005975    -0.77400
O4205       O  0.91520198  0.55079867  0.50044954    -0.79200
O4206       O  0.58674759  0.54953230  0.49977536    -0.80100
O4207       O  0.50113420  0.58720852  0.95210137    -0.81500
O4208       O  0.50032951  0.58618007  0.55208371    -0.81800
Eu4209     Eu  0.50039946  0.56228282  0.50115011     2.39200
O4210       O  0.96997884  0.53221511  0.96911858    -0.89300
O4211       O  0.53088088  0.53037045  0.53154329    -0.92900
C4212       C  0.49989542  0.57643561  0.57996306     1.01800
C4213       C  0.49948435  0.57944293  0.92372158     1.01600
C4214       C  0.57867186  0.57776963  0.50093172     1.01600
C4215       C  0.92395154  0.57896141  0.50032480     0.99400
H4216       H  0.54471131  0.54217771  0.95739608     0.29200
O4217       O  0.53164310  0.52951127  0.96981141    -1.01700
H4218       H  0.95811950  0.54354485  0.54401864     0.29200
O4219       O  0.97061421  0.53069725  0.53127331    -1.04200
O4220       O  0.49775051  0.95156212  0.91131977    -0.81400
O4221       O  0.50051617  0.94746600  0.58631046    -0.81000
O4222       O  0.58619725  0.49653961  0.95043667    -0.79400
O4223       O  0.91254809  0.50201896  0.95013206    -0.82700
O4224       O  0.91367437  0.50087163  0.54937618    -0.80600
O4225       O  0.58637507  0.49780117  0.54905398    -0.79200
O4226       O  0.55079482  0.91257754  0.49841419    -0.80800
O4227       O  0.94975713  0.91371533  0.49996628    -0.82700
O4228       O  0.58739041  0.94940059  0.49926592    -0.79400
O4229       O  0.91360937  0.95080989  0.50150965    -0.82100
O4230       O  0.55025827  0.49999029  0.91299352    -0.77800
O4231       O  0.54976405  0.49710851  0.58632468    -0.77900
O4232       O  0.94963855  0.50028529  0.58666138    -0.77500
O4233       O  0.94839581  0.50114327  0.91255354    -0.81000
O4234       O  0.49775327  0.91406545  0.94802351    -0.80400
O4235       O  0.50100240  0.91130905  0.54861921    -0.78800
Eu4236     Eu  0.49952561  0.50066436  0.93778765     2.39800
Eu4237     Eu  0.49947457  0.49880232  0.56175910     2.39600
Eu4238     Eu  0.56087110  0.49981945  0.49927502     2.38400
Eu4239     Eu  0.93939522  0.50021186  0.50027182     2.39900
Eu4240     Eu  0.50068466  0.93772591  0.49893590     2.39800
O4241       O  0.96921999  0.96880751  0.52949097    -0.93200
O4242       O  0.52938887  0.96841573  0.96781750    -0.92100
C4243       C  0.49743012  0.92335618  0.91994843     1.02000
C4244       C  0.50045186  0.91958540  0.57691739     1.00700
C4245       C  0.57811756  0.49792114  0.92219694     1.00100
C4246       C  0.92048013  0.50153548  0.92179982     1.02100
C4247       C  0.92168894  0.50111143  0.57754042     1.01000
C4248       C  0.57767618  0.49722811  0.57719132     0.99900
C4249       C  0.57881109  0.92124006  0.49839753     0.99900
C4250       C  0.92184630  0.92261152  0.50158886     1.02500
H4251       H  0.54415797  0.95476237  0.54336389     0.29900
O4252       O  0.53143185  0.96777893  0.53100117    -1.05300
H4253       H  0.95445268  0.95749677  0.95577741     0.32000
O4254       O  0.96766750  0.96988353  0.96822285    -1.07900
O4255       O  0.50212500  0.69738891  0.66468451    -0.80500
O4256       O  0.49732843  0.70055854  0.83762082    -0.82000
O4257       O  0.54970781  0.66274575  0.75214664    -0.79000
O4258       O  0.94910294  0.66359008  0.74893458    -0.77400
O4259       O  0.91334647  0.70098413  0.74701288    -0.79200
O4260       O  0.58589406  0.70027495  0.75330216    -0.80100
O4261       O  0.49666922  0.66286675  0.80145839    -0.81500
O4262       O  0.50060438  0.66067766  0.70183126    -0.81800
Eu4263     Eu  0.49922968  0.68735234  0.75114228     2.39200
O4264       O  0.96864526  0.72001319  0.77985947    -0.89300
O4265       O  0.53125557  0.71786032  0.72055285    -0.92900
C4266       C  0.50185838  0.66931658  0.67366037     1.01800
C4267       C  0.49636254  0.67224458  0.82934783     1.01600
C4268       C  0.57756798  0.67201730  0.75326509     1.01600
C4269       C  0.92117051  0.67279911  0.74781693     0.99400
H4270       H  0.54192313  0.70664295  0.79562020     0.29200
O4271       O  0.52951540  0.71904226  0.78234486    -1.01700
H4272       H  0.95732167  0.70583406  0.70511829     0.29200
O4273       O  0.96960468  0.71871065  0.71805840    -1.04200
O4274       O  0.49770717  0.80140086  0.83668368    -0.81400
O4275       O  0.50156622  0.79701311  0.66168311    -0.81000
O4276       O  0.58431092  0.75198116  0.80205538    -0.79400
O4277       O  0.91380239  0.74895718  0.79937859    -0.82700
O4278       O  0.91454849  0.74999212  0.69683316    -0.80600
O4279       O  0.58753809  0.74982737  0.70288183    -0.79200
O4280       O  0.54833079  0.83802592  0.74846457    -0.80800
O4281       O  0.94813716  0.83717730  0.74589595    -0.82700
O4282       O  0.58488262  0.80109951  0.75078425    -0.79400
O4283       O  0.91183206  0.79980522  0.74553880    -0.82100
O4284       O  0.54729632  0.75196708  0.83809608    -0.77800
O4285       O  0.55198370  0.74901795  0.66538812    -0.77900
O4286       O  0.95193129  0.74980332  0.66054326    -0.77500
O4287       O  0.94998327  0.75113169  0.83635433    -0.81000
O4288       O  0.49919685  0.83799248  0.79917022    -0.80400
O4289       O  0.49936870  0.83515430  0.69723570    -0.78800
Eu4290     Eu  0.49834113  0.75086093  0.81192194     2.39800
Eu4291     Eu  0.50107550  0.74820566  0.68860633     2.39600
Eu4292     Eu  0.56055313  0.75031241  0.75165817     2.38400
Eu4293     Eu  0.93821458  0.75048733  0.74796744     2.39900
Eu4294     Eu  0.49859144  0.81240053  0.74892641     2.39800
O4295       O  0.96928632  0.78073524  0.71639057    -0.93200
O4296       O  0.52912119  0.78200216  0.78106630    -0.92100
C4297       C  0.49859745  0.82940436  0.82742740     1.02000
C4298       C  0.50084410  0.82531567  0.66941881     1.00700
C4299       C  0.57536815  0.75219222  0.83012431     1.00100
C4300       C  0.92221960  0.74940334  0.82778830     1.02100
C4301       C  0.92375492  0.75012376  0.66876526     1.01000
C4302       C  0.57983735  0.74966912  0.67458152     0.99900
C4303       C  0.57627206  0.82927460  0.74922392     0.99900
C4304       C  0.92021849  0.82801411  0.74522904     1.02500
H4305       H  0.54321361  0.79300601  0.70678301     0.29900
O4306       O  0.53032169  0.78056454  0.71954623    -1.05300
H4307       H  0.95511851  0.79491994  0.79125380     0.32000
O4308       O  0.96811975  0.78216413  0.77892281    -1.07900
O4309       O  0.83545543  0.99872548  0.70028994    -0.80500
O4310       O  0.66313629  0.99813620  0.69888793    -0.82000
O4311       O  0.75302340  0.94892763  0.66295827    -0.79000
O4312       O  0.74923125  0.54944965  0.66127340    -0.77400
O4313       O  0.74869503  0.58683074  0.69788075    -0.79200
O4314       O  0.75239390  0.91224085  0.70030956    -0.80100
O4315       O  0.70023685  0.99623705  0.66223266    -0.81500
O4316       O  0.79992300  0.99749705  0.66266677    -0.81800
Eu4317     Eu  0.74982072  0.99884142  0.68782771     2.39200
O4318       O  0.71823658  0.53112968  0.71731430    -0.89300
O4319       O  0.78037407  0.96834597  0.71951543    -0.92900
C4320       C  0.82774386  0.99753022  0.67198287     1.01800
C4321       C  0.67224013  0.99658937  0.67086819     1.01600
C4322       C  0.75362595  0.92096663  0.67209920     1.01600
C4323       C  0.74914364  0.57761280  0.66996530     0.99400
H4324       H  0.70684020  0.95456962  0.70646410     0.29200
O4325       O  0.71916234  0.96765880  0.71912316    -1.01700
H4326       H  0.79247723  0.54321073  0.70410995     0.29200
O4327       O  0.77975407  0.53090752  0.71718535    -1.04200
O4328       O  0.66264372  0.99783681  0.79911011    -0.81400
O4329       O  0.83525814  0.00116890  0.80045147    -0.81000
O4330       O  0.70054052  0.91145654  0.75093236    -0.79400
O4331       O  0.69966053  0.58853824  0.75070246    -0.82700
O4332       O  0.79956645  0.58729711  0.74575608    -0.80600
O4333       O  0.79988994  0.91229119  0.74992752    -0.79200
O4334       O  0.75146078  0.94979819  0.83845302    -0.80800
O4335       O  0.74976738  0.55211449  0.83526681    -0.82700
O4336       O  0.75230693  0.91256089  0.80173916    -0.79400
O4337       O  0.75129215  0.58850305  0.79773257    -0.82100
O4338       O  0.66364048  0.94809276  0.75050645    -0.77800
O4339       O  0.83582068  0.94993599  0.75025395    -0.77900
O4340       O  0.83562078  0.55016883  0.74670931    -0.77500
O4341       O  0.66333651  0.55119738  0.75100143    -0.81000
O4342       O  0.69845227  0.99841930  0.83684241    -0.80400
O4343       O  0.79889018  0.00180882  0.83757296    -0.78800
Eu4344     Eu  0.68777886  0.99896194  0.74940042     2.39800
Eu4345     Eu  0.81043300  0.99979853  0.75032274     2.39600
Eu4346     Eu  0.75005287  0.93716555  0.75082756     2.38400
Eu4347     Eu  0.74929544  0.56243415  0.74818149     2.39900
Eu4348     Eu  0.74897326  0.99975569  0.81239346     2.39800
O4349       O  0.78009393  0.53199375  0.77976181    -0.93200
O4350       O  0.71863892  0.96837314  0.78112505    -0.92100
C4351       C  0.67067333  0.99815607  0.82735088     1.02000
C4352       C  0.82684800  0.00216370  0.82863041     1.00700
C4353       C  0.67255421  0.91997837  0.75098733     1.00100
C4354       C  0.67175977  0.57943913  0.75133495     1.02100
C4355       C  0.82752664  0.57835003  0.74536026     1.01000
C4356       C  0.82765337  0.92167457  0.75006944     0.99900
C4357       C  0.75274275  0.92164875  0.82982320     0.99900
C4358       C  0.75086793  0.58011596  0.82597643     1.02500
H4359       H  0.79332734  0.95637841  0.79460340     0.29900
O4360       O  0.78028295  0.96871689  0.78182868    -1.05300
H4361       H  0.70631192  0.54443353  0.79251656     0.32000
O4362       O  0.71875975  0.53157835  0.77976754    -1.07900
O4363       O  0.69872786  0.66292347  0.00169075    -0.80500
O4364       O  0.70009652  0.83600533  0.00135023    -0.82000
O4365       O  0.66321926  0.75072349  0.54966646    -0.79000
O4366       O  0.66393882  0.75031095  0.94908647    -0.77400
O4367       O  0.70061076  0.75130895  0.91263460    -0.79200
O4368       O  0.69947068  0.74814325  0.58648976    -0.80100
O4369       O  0.66324455  0.79937513  0.00097829    -0.81500
O4370       O  0.66218014  0.69965648  0.00016774    -0.81800
Eu4371     Eu  0.68819934  0.74929356  0.99970263     2.39200
O4372       O  0.71911954  0.78093587  0.96951026    -0.89300
O4373       O  0.71846038  0.71921729  0.53110819    -0.92900
C4374       C  0.67067360  0.67154627  0.00168336     1.01800
C4375       C  0.67208377  0.82749280  0.00147134     1.01600
C4376       C  0.67142801  0.74891490  0.57777115     1.01600
C4377       C  0.67262433  0.75101258  0.92087391     0.99400
H4378       H  0.70765192  0.79427180  0.54444373     0.29200
O4379       O  0.71995779  0.78140659  0.53159960    -0.99300
H4380       H  0.70574852  0.70562435  0.95580171     0.29200
O4381       O  0.71851543  0.71812597  0.96860921    -1.04200
O4382       O  0.79984259  0.83654555  0.00260525    -0.81400
O4383       O  0.80001381  0.66319668  0.99994967    -0.81000
O4384       O  0.75141345  0.79901314  0.58778984    -0.79400
O4385       O  0.75101606  0.80029228  0.91393826    -0.82700
O4386       O  0.74933817  0.69927374  0.91330633    -0.80600
O4387       O  0.74860014  0.69948566  0.58755818    -0.79200
O4388       O  0.83744303  0.74720921  0.54894172    -0.80800
O4389       O  0.83529393  0.74974338  0.94885587    -0.82700
O4390       O  0.80063026  0.74864556  0.58577663    -0.79400
O4391       O  0.79846303  0.74858434  0.91257853    -0.82100
O4392       O  0.75351957  0.83641063  0.55130309    -0.77800
O4393       O  0.74777681  0.66266616  0.55045809    -0.77900
O4394       O  0.74870033  0.66183773  0.94978719    -0.77500
O4395       O  0.75103493  0.83686584  0.95134273    -0.81000
O4396       O  0.83553664  0.79906177  0.00250610    -0.80400
O4397       O  0.83687087  0.69964783  0.99933010    -0.78800
Eu4398     Eu  0.75002611  0.81106202  0.00141639     2.39800
Eu4399     Eu  0.74930582  0.68701042  0.99961641     2.39600
Eu4400     Eu  0.75005807  0.74925304  0.56203457     2.38400
Eu4401     Eu  0.74963705  0.74970360  0.93849881     2.39900
Eu4402     Eu  0.81110280  0.74893722  0.00013879     2.39800
O4403       O  0.78033591  0.71820349  0.96892955    -0.93200
O4404       O  0.78195631  0.77915129  0.53099994    -0.92100
C4405       C  0.82768603  0.82732940  0.00281994     1.02000
C4406       C  0.82809379  0.67155946  0.99952504     1.00700
C4407       C  0.75258071  0.82721415  0.57934763     1.00100
C4408       C  0.75129591  0.82826110  0.92313813     1.02100
C4409       C  0.74870333  0.67099499  0.92180625     1.01000
C4410       C  0.74772332  0.67152591  0.57850246     0.99900
C4411       C  0.82858829  0.74761947  0.57706799     0.99900
C4412       C  0.82644172  0.74927798  0.92062813     1.02500
H4413       H  0.79278998  0.70475711  0.54350928     0.29900
O4414       O  0.78040594  0.71783466  0.53088616    -1.05300
H4415       H  0.79339235  0.79330082  0.95714837     0.32000
O4416       O  0.78057562  0.78048020  0.96968322    -1.07900
C4417       C  0.72203014  0.61659482  0.64012387    -0.06100
C4418       C  0.74930433  0.60134145  0.64625034    -0.00200
C4419       C  0.77616077  0.60963275  0.63053740    -0.08800
C4420       C  0.77448644  0.63227786  0.60791560    -0.06100
C4421       C  0.74733522  0.64767802  0.60198694    -0.00200
C4422       C  0.72064863  0.64006210  0.61823948    -0.08700
C4423       C  0.69096106  0.65643887  0.61204900     0.61700
H4424       H  0.70187013  0.60999996  0.65270500     0.12400
H4425       H  0.79449753  0.63852221  0.59496444     0.12400
C4426       C  0.80651410  0.59538143  0.63837101     0.61900
F4427       F  0.66769790  0.64565576  0.63042028    -0.23200
F4428       F  0.68268844  0.65230668  0.58187686    -0.20600
F4429       F  0.69435922  0.68727930  0.61766456    -0.20200
F4430       F  0.80483086  0.56417188  0.63496535    -0.20300
F4431       F  0.81392110  0.60207652  0.66830337    -0.20600
F4432       F  0.82959676  0.60610062  0.61969631    -0.23300
C4433       C  0.73099270  0.87566469  0.64812285    -0.06100
C4434       C  0.75461692  0.89703363  0.64841725    -0.00200
C4435       C  0.77804284  0.89522193  0.62626589    -0.08800
C4436       C  0.77653190  0.87211835  0.60395366    -0.06100
C4437       C  0.75276150  0.85076427  0.60359941    -0.00200
C4438       C  0.72950949  0.85258127  0.62594670    -0.08700
C4439       C  0.70298238  0.83053842  0.62616079     0.61700
H4440       H  0.71339736  0.87748786  0.66532843     0.12400
H4441       H  0.79399860  0.87048733  0.58659486     0.12400
C4442       C  0.80467091  0.91724195  0.62636734     0.61900
F4443       F  0.68120660  0.83849479  0.64752328    -0.23200
F4444       F  0.71337245  0.80172701  0.63330489    -0.20600
F4445       F  0.68927384  0.83006892  0.59778218    -0.20200
F4446       F  0.81670199  0.91950921  0.65543865    -0.20300
F4447       F  0.79511394  0.94571316  0.61674252    -0.20600
F4448       F  0.82764539  0.90758980  0.60713562    -0.23300
C4449       C  0.72616512  0.89039102  0.86836589    -0.06100
C4450       C  0.75358981  0.89798044  0.85398779    -0.00200
C4451       C  0.78058400  0.88251708  0.86242939    -0.08800
C4452       C  0.77911361  0.85993916  0.88538800    -0.06100
C4453       C  0.75155000  0.85228315  0.89949173    -0.00200
C4454       C  0.72457996  0.86719718  0.89057334    -0.08700
C4455       C  0.69419212  0.85766949  0.90379249     0.61700
H4456       H  0.70582588  0.90246655  0.86163101     0.12400
H4457       H  0.79947781  0.84817351  0.89264071     0.12400
C4458       C  0.81081880  0.89050277  0.84794563     0.61900
F4459       F  0.67051263  0.87420926  0.89134249    -0.23200
F4460       F  0.69408992  0.86209470  0.93504649    -0.20600
F4461       F  0.68917754  0.82711637  0.89767352    -0.20200
F4462       F  0.81825194  0.92024681  0.85526196    -0.20300
F4463       F  0.80897611  0.88759904  0.81657631    -0.20600
F4464       F  0.83392370  0.87164064  0.85808961    -0.23300
C4465       C  0.72937952  0.60137857  0.87334304    -0.06100
C4466       C  0.75063877  0.60420204  0.84970061    -0.00200
C4467       C  0.77119784  0.62913786  0.84984591    -0.08800
C4468       C  0.76961546  0.65045791  0.87377041    -0.06100
C4469       C  0.74854158  0.64745868  0.89755010    -0.00200
C4470       C  0.72786728  0.62262959  0.89729413    -0.08700
C4471       C  0.70439937  0.61829566  0.92215834     0.61700
H4472       H  0.71387886  0.58217228  0.87288947     0.12400
H4473       H  0.78505468  0.66970989  0.87421861     0.12400
C4474       C  0.79472661  0.63342794  0.82501578     0.61900
F4475       F  0.68376922  0.59560942  0.91486136    -0.23200
F4476       F  0.68833967  0.64503770  0.92659401    -0.20600
F4477       F  0.71900021  0.61003936  0.94881770    -0.20200
F4478       F  0.78023872  0.64168415  0.79829584    -0.20300
F4479       F  0.81075234  0.60666607  0.82059909    -0.20600
F4480       F  0.81537231  0.65609047  0.83236554    -0.23300
C4481       C  0.90347875  0.62044770  0.73512263    -0.06100
C4482       C  0.89634406  0.64947923  0.74665167    -0.00200
C4483       C  0.86584116  0.65541742  0.75593648    -0.08800
C4484       C  0.84444332  0.63164355  0.75430891    -0.06100
C4485       C  0.85184429  0.60226085  0.74406755    -0.00200
C4486       C  0.88178360  0.59689047  0.73307193    -0.08700
C4487       C  0.89093926  0.56702105  0.71813913     0.61700
H4488       H  0.92641926  0.61632559  0.72731239     0.12400
H4489       H  0.82142022  0.63590762  0.76137720     0.12400
C4490       C  0.85544679  0.68615413  0.76845312     0.61900
F4491       F  0.91915293  0.56887688  0.70438112    -0.23200
F4492       F  0.87011560  0.55926901  0.69582197    -0.20600
F4493       F  0.89241329  0.54426455  0.73988999    -0.20200
F4494       F  0.85723861  0.70832430  0.74599246    -0.20300
F4495       F  0.87325544  0.69422799  0.79314330    -0.20600
F4496       F  0.82561445  0.68552503  0.77829677    -0.23300
C4497       C  0.89880653  0.87529354  0.76705585    -0.06100
C4498       C  0.89615055  0.85170805  0.74556786    -0.00200
C4499       C  0.87121252  0.85172389  0.72506031    -0.08800
C4500       C  0.84893762  0.87450140  0.72805633    -0.06100
C4501       C  0.85177690  0.89819396  0.74935481    -0.00200
C4502       C  0.87736273  0.89898478  0.76894896    -0.08700
C4503       C  0.88245947  0.92485358  0.79141920     0.61700
H4504       H  0.91822478  0.87522173  0.78219083     0.12400
H4505       H  0.82943656  0.87453735  0.71301352     0.12400
C4506       C  0.86898843  0.82923302  0.69883765     0.61900
F4507       F  0.90579567  0.91849704  0.81156495    -0.23200
F4508       F  0.85655542  0.92999415  0.80839071    -0.20600
F4509       F  0.88993972  0.95112578  0.77557657    -0.20200
F4510       F  0.86225479  0.80042635  0.70981816    -0.20300
F4511       F  0.89624096  0.82846077  0.68324630    -0.20600
F4512       F  0.84663837  0.83746720  0.67818121    -0.23300
C4513       C  0.60117087  0.62564101  0.73173006    -0.06100
C4514       C  0.60177777  0.64846422  0.75403968    -0.00200
C4515       C  0.62534398  0.64841727  0.77611529    -0.08800
C4516       C  0.64796933  0.62563378  0.77460411    -0.06100
C4517       C  0.64745772  0.60296604  0.75196670    -0.00200
C4518       C  0.62393596  0.60323668  0.72997625    -0.08700
C4519       C  0.62394990  0.58105134  0.70359857     0.61700
H4520       H  0.58299964  0.62599477  0.71509538     0.12400
H4521       H  0.66621564  0.62532293  0.79114846     0.12400
C4522       C  0.62626651  0.67199777  0.80142945     0.61900
F4523       F  0.61771358  0.55190982  0.71407411    -0.23200
F4524       F  0.65206810  0.58156985  0.68944125    -0.20600
F4525       F  0.60234271  0.58862830  0.68206231    -0.20200
F4526       F  0.59806118  0.67429648  0.81517505    -0.20300
F4527       F  0.63439250  0.69999155  0.78933890    -0.20600
F4528       F  0.64707913  0.66438557  0.82381074    -0.23300
C4529       C  0.62584300  0.84826064  0.76773025    -0.06100
C4530       C  0.60047471  0.85302648  0.74892402    -0.00200
C4531       C  0.59936108  0.87960807  0.73027416    -0.08800
C4532       C  0.62359386  0.90052181  0.73157236    -0.06100
C4533       C  0.64871953  0.89593978  0.75068567    -0.00200
C4534       C  0.64993159  0.86933192  0.76922276    -0.08700
C4535       C  0.67574277  0.86363885  0.79148010     0.61700
H4536       H  0.62642034  0.82789608  0.78177850     0.12400
H4537       H  0.62305720  0.92093286  0.71758421     0.12400
C4538       C  0.57305644  0.88610312  0.70884209     0.61900
F4539       F  0.67001808  0.83888264  0.81035399    -0.23200
F4540       F  0.67971066  0.88898578  0.80980006    -0.20600
F4541       F  0.70224215  0.85774935  0.77564264    -0.20200
F4542       F  0.54763003  0.89371817  0.72568688    -0.20300
F4543       F  0.56694094  0.86072533  0.69116892    -0.20600
F4544       F  0.57932969  0.91014331  0.68921559    -0.23300
C4545       C  0.87464172  0.73077040  0.64895079    -0.06100
C4546       C  0.89997501  0.74988008  0.64455007    -0.00200
C4547       C  0.90135280  0.76852134  0.61795806    -0.08800
C4548       C  0.87758544  0.76679547  0.59657516    -0.06100
C4549       C  0.85241171  0.74766230  0.60098093    -0.00200
C4550       C  0.85083976  0.72912833  0.62754814    -0.08700
C4551       C  0.82501132  0.70660146  0.63260402     0.61700
H4552       H  0.87382573  0.71670702  0.66930799     0.12400
H4553       H  0.87836778  0.78070252  0.57610005     0.12400
C4554       C  0.92723775  0.79072892  0.61214855     0.61900
F4555       F  0.82985379  0.68824132  0.65788382    -0.23200
F4556       F  0.82237722  0.68790004  0.60734768    -0.20600
F4557       F  0.79802700  0.72198152  0.63719368    -0.20200
F4558       F  0.95322606  0.77476204  0.60473281    -0.20300
F4559       F  0.93251693  0.80819243  0.63783623    -0.20600
F4560       F  0.92083540  0.81051897  0.58829591    -0.23300
C4561       C  0.59538792  0.74349688  0.62048009    -0.06100
C4562       C  0.60422446  0.74980248  0.65067014    -0.00200
C4563       C  0.63542763  0.75602471  0.65654115    -0.08800
C4564       C  0.65617010  0.75432750  0.63215428    -0.06100
C4565       C  0.64726325  0.74833128  0.60191702    -0.00200
C4566       C  0.61601539  0.74233095  0.59602862    -0.08700
C4567       C  0.60375189  0.73436863  0.56449576     0.61700
H4568       H  0.57166016  0.73981940  0.61582809     0.12400
H4569       H  0.67992421  0.75790000  0.63674523     0.12400
C4570       C  0.64731986  0.76557086  0.68777746     0.61900
F4571       F  0.57360525  0.72543517  0.56542525    -0.23200
F4572       F  0.62000323  0.71035171  0.55222613    -0.20600
F4573       F  0.60566505  0.75959519  0.54554455    -0.20200
F4574       F  0.64410124  0.74187624  0.70844294    -0.20300
F4575       F  0.63164652  0.79096047  0.69791228    -0.20600
F4576       F  0.67780236  0.77326073  0.68697143    -0.23300
C4577       C  0.61815824  0.75338538  0.90658702    -0.06100
C4578       C  0.64852440  0.75146934  0.89671220    -0.00200
C4579       C  0.65439385  0.74943269  0.86472303    -0.08800
C4580       C  0.62977112  0.75097949  0.84445780    -0.06100
C4581       C  0.59938047  0.75228644  0.85433367    -0.00200
C4582       C  0.59342471  0.75285362  0.88634061    -0.08700
C4583       C  0.56152573  0.75226346  0.89985989     0.61700
H4584       H  0.61366732  0.75483253  0.93081247     0.12400
H4585       H  0.63438207  0.75075614  0.82022941     0.12400
C4586       C  0.68602186  0.74502409  0.85123792     0.61900
F4587       F  0.56175490  0.75196404  0.93148453    -0.23200
F4588       F  0.54653241  0.72616878  0.89051671    -0.20600
F4589       F  0.54556152  0.77785187  0.89079085    -0.20200
F4590       F  0.68543080  0.74128647  0.81982571    -0.20300
F4591       F  0.70386210  0.77027771  0.85729309    -0.20600
F4592       F  0.69918833  0.71907121  0.86341870    -0.23300
C4593       C  0.86851808  0.75591358  0.84366568    -0.06100
C4594       C  0.89829466  0.74846829  0.85218686    -0.00200
C4595       C  0.90401741  0.74044866  0.88331217    -0.08800
C4596       C  0.87990238  0.74146890  0.90440527    -0.06100
C4597       C  0.85014330  0.74916429  0.89594472    -0.00200
C4598       C  0.84426387  0.75628539  0.86463093    -0.08700
C4599       C  0.81291367  0.76469124  0.85271268     0.61700
H4600       H  0.86427283  0.76169616  0.82002993     0.12400
H4601       H  0.88426200  0.73588884  0.92807275     0.12400
C4602       C  0.93494398  0.73003182  0.89483539     0.61900
F4603       F  0.81347719  0.77321404  0.82223787    -0.23200
F4604       F  0.80149029  0.78908694  0.86904143    -0.20600
F4605       F  0.79364062  0.73986182  0.85523645    -0.20200
F4606       F  0.95507156  0.75428230  0.89473463    -0.20300
F4607       F  0.94586654  0.70678076  0.87660946    -0.20600
F4608       F  0.93357557  0.71881198  0.92441270    -0.23300
C4609       C  0.84841793  0.87763201  0.51680273    -0.06100
C4610       C  0.85462770  0.85001478  0.50167876    -0.00200
C4611       C  0.88212420  0.84572378  0.99242968    -0.08800
C4612       C  0.90324509  0.86976464  0.99356281    -0.06100
C4613       C  0.89781462  0.89848554  0.50257009    -0.00200
C4614       C  0.86937244  0.90198050  0.51763708    -0.08700
C4615       C  0.86110013  0.93066993  0.53532082     0.61700
H4616       H  0.82675722  0.87997523  0.52824486     0.12400
H4617       H  0.92598632  0.86574238  0.98559562     0.12400
C4618       C  0.89220246  0.81530581  0.97890476     0.61900
F4619       F  0.83357705  0.92779007  0.55026408    -0.23200
F4620       F  0.85653631  0.95685758  0.01343476    -0.20600
F4621       F  0.88310148  0.93668388  0.55700948    -0.20200
F4622       F  0.87264399  0.80661604  0.95580377    -0.20300
F4623       F  0.89610135  0.79409309  0.49013249    -0.20600
F4624       F  0.92103904  0.81682770  0.96643526    -0.23300
C4625       C  0.87817761  0.65246423  0.51252938    -0.06100
C4626       C  0.85033859  0.64492483  0.49874611    -0.00200
C4627       C  0.84779873  0.61730752  0.98920219    -0.08800
C4628       C  0.87237490  0.59685792  0.98994145    -0.06100
C4629       C  0.89966188  0.60282737  0.49996486    -0.00200
C4630       C  0.90290542  0.63215258  0.51347314    -0.08700
C4631       C  0.93191307  0.64228721  0.52932564     0.61700
H4632       H  0.88045226  0.67476620  0.52286333     0.12400
H4633       H  0.86911678  0.57389516  0.98152581     0.12400
C4634       C  0.81755885  0.60620299  0.97664273     0.61900
F4635       F  0.92846743  0.67004247  0.54399735    -0.23200
F4636       F  0.95765134  0.64715711  0.00367595    -0.20600
F4637       F  0.94024431  0.62103203  0.55109579    -0.20200
F4638       F  0.80799565  0.62529308  0.95336591    -0.20300
F4639       F  0.79514398  0.60213025  0.49127443    -0.20600
F4640       F  0.81947121  0.57700535  0.96480282    -0.23300
C4641       C  0.62659422  0.90051687  0.01583568    -0.06100
C4642       C  0.60312160  0.89750859  0.49779655    -0.00200
C4643       C  0.59989597  0.86900623  0.48269541    -0.08800
C4644       C  0.62384720  0.84788986  0.48416352    -0.06100
C4645       C  0.65126261  0.85438426  0.49917211    -0.00200
C4646       C  0.65100632  0.87980809  0.01688695    -0.08700
C4647       C  0.67945145  0.88842078  0.03457289     0.61700
H4648       H  0.62842741  0.92211924  0.02766674     0.12400
H4649       H  0.62129715  0.82587447  0.47325951     0.12400
C4650       C  0.57181099  0.86081443  0.46434993     0.61900
F4651       F  0.67564348  0.91501042  0.05114862    -0.23200
F4652       F  0.70328358  0.89305761  0.01450483    -0.20600
F4653       F  0.68684654  0.86546966  0.05493269    -0.20200
F4654       F  0.56433284  0.88460870  0.44503216    -0.20300
F4655       F  0.54787318  0.85485243  0.48391969    -0.20600
F4656       F  0.57633587  0.83520016  0.44643382    -0.23300
C4657       C  0.65223178  0.62223531  0.51491889    -0.06100
C4658       C  0.64619149  0.64967628  0.49949009    -0.00200
C4659       C  0.61748106  0.65121319  0.01559478    -0.08800
C4660       C  0.59700070  0.62659080  0.01532510    -0.06100
C4661       C  0.60288165  0.60161902  0.50085519    -0.00200
C4662       C  0.63134933  0.59795532  0.51569272    -0.08700
C4663       C  0.63969525  0.56918097  0.53320355     0.61700
H4664       H  0.67376688  0.61991981  0.52654173     0.12400
H4665       H  0.57447302  0.62972125  0.02467090     0.12400
C4666       C  0.60737910  0.68108074  0.02975967     0.61900
F4667       F  0.67389867  0.56473579  0.96643443    -0.23200
F4668       F  0.62565559  0.55385946  0.95543015    -0.20600
F4669       F  0.61716717  0.56232468  0.55407423    -0.20200
F4670       F  0.60394234  0.70272765  0.00701145    -0.20300
F4671       F  0.60570618  0.70565786  0.48195063    -0.20600
F4672       F  0.58618448  0.67572973  0.44552174    -0.23300
C4673       C  0.84520455  0.98709088  0.87992957    -0.06100
C4674       C  0.85233363  0.50399990  0.85022764    -0.00200
C4675       C  0.88091641  0.51866589  0.84644233    -0.08800
C4676       C  0.90219178  0.51725172  0.87042775    -0.06100
C4677       C  0.89603972  0.50204664  0.89807358    -0.00200
C4678       C  0.86655226  0.98595642  0.90378876    -0.08700
C4679       C  0.85877463  0.96784828  0.93240916     0.61700
H4680       H  0.82373747  0.97531666  0.88240995     0.12400
H4681       H  0.92404624  0.52825368  0.86773940     0.12400
C4682       C  0.88914113  0.53607944  0.81755157     0.61900
F4683       F  0.83113164  0.45526763  0.92774824    -0.23200
F4684       F  0.85595672  0.49034412  0.95488523    -0.20600
F4685       F  0.88172182  0.94734696  0.93888574    -0.20200
F4686       F  0.86648232  0.55672384  0.81042292    -0.20300
F4687       F  0.89008398  0.01868610  0.79656925    -0.20600
F4688       F  0.91196817  0.05508164  0.82453007    -0.23300
C4689       C  0.60040087  0.51956025  0.87481596    -0.06100
C4690       C  0.60267203  0.49825228  0.89871881    -0.00200
C4691       C  0.62686126  0.97607796  0.89842804    -0.08800
C4692       C  0.64901452  0.97784416  0.87531787    -0.06100
C4693       C  0.64773517  0.50164473  0.85231703    -0.00200
C4694       C  0.62260084  0.52187971  0.85170242    -0.08700
C4695       C  0.61961114  0.54657188  0.82744209     0.61700
H4696       H  0.58104312  0.53475852  0.87458129     0.12400
H4697       H  0.66871366  0.96310170  0.87617387     0.12400
C4698       C  0.63011921  0.95197179  0.92322724     0.61900
F4699       F  0.59606629  0.56646355  0.83382883    -0.23200
F4700       F  0.61387774  0.53347560  0.79935045    -0.20600
F4701       F  0.64611314  0.56347063  0.82586549    -0.20200
F4702       F  0.60335572  0.93569213  0.92610154    -0.20300
F4703       F  0.63712492  0.96562853  0.95075477    -0.20600
F4704       F  0.65296379  0.93137458  0.91651884    -0.23300
C4705       C  0.62133910  0.97276451  0.60483115    -0.06100
C4706       C  0.60152341  0.49790527  0.60075732    -0.00200
C4707       C  0.60478494  0.52283320  0.62102159    -0.08800
C4708       C  0.62749977  0.52143846  0.64346046    -0.06100
C4709       C  0.64751933  0.49676023  0.64591273    -0.00200
C4710       C  0.64419340  0.97090584  0.62727672    -0.08700
C4711       C  0.66295897  0.94206140  0.63058858     0.61700
H4712       H  0.61720616  0.95362401  0.58976429     0.12400
H4713       H  0.63033172  0.54043166  0.65863960     0.12400
C4714       C  0.58554734  0.55167928  0.61984886     0.61900
F4715       F  0.65273921  0.91904159  0.61157443    -0.23200
F4716       F  0.66680430  0.43434572  0.65770123    -0.20600
F4717       F  0.69286704  0.94817125  0.62323083    -0.20200
F4718       F  0.56734826  0.55276770  0.64555731    -0.20300
F4719       F  0.57644387  0.05797461  0.59070251    -0.20600
F4720       F  0.60434132  0.57698647  0.61948226    -0.23300
C4721       C  0.90391453  0.98760109  0.63042492    -0.06100
C4722       C  0.89705100  0.50124529  0.60099630    -0.00200
C4723       C  0.86724766  0.51246779  0.59542297    -0.08800
C4724       C  0.84496523  0.50848352  0.61812428    -0.06100
C4725       C  0.85169496  0.49655306  0.64715425    -0.00200
C4726       C  0.88221484  0.98595112  0.65405417    -0.08700
C4727       C  0.89133156  0.97170352  0.68444475     0.61700
H4728       H  0.92647588  0.97914116  0.63446701     0.12400
H4729       H  0.82198185  0.51560632  0.61343758     0.12400
C4730       C  0.85910291  0.53090243  0.56703801     0.61900
F4731       F  0.92003655  0.95914428  0.68353172    -0.23200
F4732       F  0.87117149  0.94873135  0.69221664    -0.20600
F4733       F  0.89064605  0.49250544  0.70640066    -0.20200
F4734       F  0.85584581  0.01233443  0.54382702    -0.20300
F4735       F  0.88040600  0.55370182  0.56257559    -0.20600
F4736       F  0.83105678  0.54485487  0.56984220    -0.23300
C4737       C  0.51779127  0.65049298  0.87664963    -0.06100
C4738       C  0.49569093  0.64876207  0.85371184    -0.00200
C4739       C  0.97272112  0.62756148  0.85484840    -0.08800
C4740       C  0.97434191  0.60498086  0.87779749    -0.06100
C4741       C  0.49853300  0.60414226  0.90047999    -0.00200
C4742       C  0.51990087  0.62839056  0.89992001    -0.08700
C4743       C  0.54568576  0.63031355  0.92285882     0.61700
H4744       H  0.53402463  0.66902398  0.87568581     0.12400
H4745       H  0.95635691  0.58824899  0.88009362     0.12400
C4746       C  0.94527738  0.62886416  0.83393351     0.61900
F4747       F  0.56664980  0.65251340  0.91487291    -0.23200
F4748       F  0.56079233  0.60268352  0.92431600    -0.20600
F4749       F  0.53432134  0.63748036  0.95139364    -0.20200
F4750       F  0.95350573  0.61989699  0.80483018    -0.20300
F4751       F  0.93386835  0.65824273  0.83283608    -0.20600
F4752       F  0.92224439  0.60985823  0.84402797    -0.23300
C4753       C  0.52472861  0.89037172  0.88326719    -0.06100
C4754       C  0.49698929  0.89977699  0.89582570    -0.00200
C4755       C  0.97374497  0.87816971  0.89242835    -0.08800
C4756       C  0.97492612  0.85606658  0.86919818    -0.06100
C4757       C  0.49881292  0.85351835  0.85100944    -0.00200
C4758       C  0.52613689  0.86726605  0.86096776    -0.08700
C4759       C  0.55656736  0.85736237  0.84810228     0.61700
H4760       H  0.54532128  0.90134390  0.89108157     0.12400
H4761       H  0.95705169  0.83918290  0.86725367     0.12400
C4762       C  0.94792703  0.87762087  0.91527161     0.61900
F4763       F  0.58048661  0.87243626  0.86195095    -0.23200
F4764       F  0.55762198  0.86348832  0.81713249    -0.20600
F4765       F  0.56049013  0.82639746  0.85266663    -0.20200
F4766       F  0.93575097  0.90651385  0.91867878    -0.20300
F4767       F  0.95910341  0.86756996  0.94292811    -0.20600
F4768       F  0.92479981  0.85817850  0.90639150    -0.23300
C4769       C  0.52044499  0.87112451  0.59783128    -0.06100
C4770       C  0.49975312  0.89525894  0.60036839    -0.00200
C4771       C  0.98086218  0.89679543  0.62417226    -0.08800
C4772       C  0.98292145  0.87370822  0.64626513    -0.06100
C4773       C  0.50092229  0.84830123  0.64462113    -0.00200
C4774       C  0.52121647  0.84724017  0.61937652    -0.08700
C4775       C  0.54366168  0.82129319  0.61503954     0.61700
H4776       H  0.53608861  0.87120453  0.57872928     0.12400
H4777       H  0.96867523  0.87468799  0.66642736     0.12400
C4778       C  0.95765501  0.92183523  0.62845971     0.61900
F4779       F  0.56339994  0.82682930  0.59102049    -0.23200
F4780       F  0.52812901  0.79463052  0.60866461    -0.20600
F4781       F  0.56079758  0.81738298  0.64118272    -0.20200
F4782       F  0.94240020  0.92742667  0.60141680    -0.20300
F4783       F  0.97225780  0.94805842  0.63806538    -0.20600
F4784       F  0.93618661  0.91373905  0.65007709    -0.23300
C4785       C  0.97975471  0.62539473  0.64802309    -0.06100
C4786       C  0.50240123  0.64525865  0.64989603    -0.00200
C4787       C  0.52400312  0.64515898  0.62586009    -0.08800
C4788       C  0.52223872  0.62229020  0.60346972    -0.06100
C4789       C  0.49999765  0.59944479  0.60460629    -0.00200
C4790       C  0.97842481  0.60209458  0.62597179    -0.08700
C4791       C  0.95168135  0.58015464  0.62604060     0.61700
H4792       H  0.96191478  0.62752583  0.66493519     0.12400
H4793       H  0.53836498  0.62202003  0.58477218     0.12400
C4794       C  0.54892246  0.66896931  0.62385035     0.61900
F4795       F  0.92924874  0.58930162  0.64617180    -0.23200
F4796       F  0.96131881  0.55140878  0.63468924    -0.20600
F4797       F  0.93888130  0.57862330  0.59729078    -0.20200
F4798       F  0.56377731  0.67128190  0.65158303    -0.20300
F4799       F  0.53626636  0.69676182  0.61627349    -0.20600
F4800       F  0.57028757  0.66179092  0.60180046    -0.23300
loop_ 
_geom_bond_atom_site_label_1 
_geom_bond_atom_site_label_2 
_geom_bond_distance 
_geom_bond_site_symmetry_2 
_ccdc_geom_bond_type 
O1           C12   1.289       .  A
O1          Eu37   2.450   1_545  S
O2           C13   1.292       .  A
O2          Eu36   2.467       .  S
O3           C14   1.293   1_554  A
O3           Eu9   2.464       .  S
O4           C15   1.292       .  A
O4        Eu2409   2.474       .  S
O5           C15   1.292       .  A
O5          Eu39   2.458       .  S
O6           C14   1.287       .  A
O6          Eu38   2.456   1_545  S
O7           C13   1.292   1_455  A
O7         Eu609   2.468       .  S
O8           C12   1.292       .  A
O8           Eu9   2.462       .  S
Eu9        O2404   2.461   1_455  S
Eu9         O607   2.466   1_454  S
Eu9          O11   2.356       .  S
Eu9        O2419   2.352   1_455  S
Eu9        O3010   2.356   1_454  S
Eu9         O617   2.354   1_554  S
O10       Eu3009   2.359       .  S
O10        Eu639   2.352       .  S
O10       Eu2436   2.358       .  S
O11         Eu37   2.354   1_545  S
O11         Eu38   2.348   1_544  S
C12         C589   1.479       .  S
C13         C541   1.476       .  S
C14         C461   1.502       .  S
C15         C429   1.497   1_554  S
H16          O17   0.966       .  S
O17         Eu36   2.362   1_455  S
O17        Eu609   2.358       .  S
O17        Eu638   2.359       .  S
H18          O19   0.966       .  S
O19         Eu39   2.351       .  S
O19       Eu2409   2.350       .  S
O19       Eu2437   2.358   1_545  S
O20          C43   1.292       .  A
O20       Eu1236   2.464       .  S
O21          C44   1.289   1_455  A
O21       Eu1237   2.448       .  S
O22          C45   1.287       .  A
O22        Eu638   2.443   1_565  S
O23          C46   1.286       .  A
O23        Eu639   2.444       .  S
O24          C47   1.288       .  A
O24         Eu39   2.456       .  S
O25          C48   1.294       .  A
O25         Eu38   2.478   1_554  S
O26          C49   1.290       .  A
O26         Eu40   2.465   1_455  S
O27          C50   1.291       .  A
O27       Eu2440   2.451   1_554  S
O28          C49   1.292       .  A
O28       Eu1238   2.459       .  S
O29          C50   1.289       .  A
O29       Eu1239   2.462       .  S
O30          C45   1.295   1_545  A
O30         Eu36   2.475   1_455  S
O31          C48   1.292       .  A
O31         Eu37   2.472       .  S
O32          C47   1.294       .  A
O32       Eu2437   2.471   1_545  S
O33          C46   1.297       .  A
O33       Eu2436   2.489       .  S
O34          C43   1.288       .  A
O34        Eu640   2.448   1_655  S
O35          C44   1.293       .  A
O35         Eu40   2.468   1_554  S
Eu36       O1220   2.464   1_545  S
Eu36       O2433   2.481       .  S
Eu36       O2410   2.355       .  S
Eu36       O3654   2.359   1_545  S
Eu36       O1242   2.355   1_645  S
Eu37       O1221   2.451   1_455  S
Eu37       O2432   2.474   1_465  S
Eu37       O2419   2.354   1_465  S
Eu37       O3641   2.352   1_455  S
Eu37       O1252   2.356       .  S
Eu38        O622   2.446       .  S
Eu38       O1228   2.462       .  S
Eu38        O617   2.363   1_565  S
Eu38       O1252   2.348   1_556  S
Eu38       O1842   2.353       .  S
Eu39        O623   2.460   1_554  S
Eu39       O1229   2.458   1_545  S
Eu39        O610   2.348   1_554  S
Eu39       O1241   2.351   1_545  S
Eu39       O1854   2.354   1_544  S
Eu40       O2427   2.459       .  S
Eu40        O634   2.477       .  S
Eu40         O52   2.361   1_656  S
Eu40       O2441   2.360   1_556  S
Eu40       O3054   2.361       .  S
Eu40        O642   2.350   1_655  S
O41       Eu3637   2.350       .  S
O41       Eu1239   2.348       .  S
O41       Eu2440   2.354   1_554  S
O42       Eu1236   2.356   1_455  S
O42       Eu1838   2.351       .  S
O42        Eu640   2.345       .  S
C43         C554   1.481       .  S
C44         C570   1.479   1_655  S
C45         C490   1.490       .  S
C46         C477   1.496       .  S
C47         C522   1.497       .  S
C48         C506   1.485       .  S
C49         C442   1.494       .  S
C50         C413   1.494       .  S
H51          O52   0.966       .  S
O52       Eu1237   2.364       .  S
O52       Eu1238   2.350   1_554  S
H53          O54   0.966       .  S
O54       Eu3636   2.361       .  S
O54       Eu1839   2.357       .  S
O54       Eu3040   2.358       .  S
O55          C66   1.289       .  A
O55         Eu91   2.455       .  S
O56          C67   1.292       .  A
O56         Eu90   2.462       .  S
O57          C68   1.297       .  A
O57         Eu63   2.486   1_455  S
O58          C69   1.297       .  A
O58       Eu2463   2.484       .  S
O59          C69   1.285       .  A
O59         Eu93   2.439       .  S
O60          C68   1.290       .  A
O60         Eu92   2.461       .  S
O61          C67   1.289       .  A
O61         Eu63   2.450       .  S
O62          C66   1.293       .  A
O62         Eu63   2.471   1_455  S
Eu63       O2458   2.487       .  S
Eu63         O65   2.352   1_655  S
Eu63         O71   2.368   1_655  S
Eu63       O2473   2.356       .  S
Eu63       O2464   2.356       .  S
O64         Eu93   2.352       .  S
O64       Eu2463   2.357       .  S
O64       Eu2490   2.351       .  S
O65         Eu91   2.346       .  S
O65         Eu92   2.357       .  S
C66         C586   1.486       .  S
C67         C538   1.468       .  S
C68         C314   1.497       .  S
C69         C282   1.498       .  S
H70          O71   0.966       .  S
O71         Eu92   2.352       .  S
O71         Eu90   2.348   1_455  S
H72          O73   0.966       .  S
O73         Eu93   2.360       .  S
O73       Eu2463   2.352       .  S
O73       Eu2491   2.351       .  S
O74          C97   1.294       .  A
O74         Eu90   2.472       .  S
O75          C98   1.288       .  A
O75         Eu91   2.446       .  S
O76          C99   1.290       .  A
O76         Eu92   2.444       .  S
O77         C100   1.294       .  A
O77         Eu93   2.469       .  S
O78         C101   1.293       .  A
O78         Eu93   2.465       .  S
O79         C102   1.284       .  A
O79         Eu92   2.432       .  S
O80         C103   1.288       .  A
O80         Eu94   2.451   1_455  S
O81         C104   1.296       .  A
O81       Eu2494   2.484       .  S
O82         C103   1.293       .  A
O82         Eu92   2.470       .  S
O83         C104   1.289       .  A
O83         Eu93   2.461       .  S
O84          C99   1.285       .  A
O84         Eu90   2.446   1_455  S
O85         C102   1.294       .  A
O85         Eu91   2.466       .  S
O86         C101   1.289       .  A
O86       Eu2491   2.453       .  S
O87         C100   1.281       .  A
O87       Eu2490   2.425       .  S
O88          C97   1.288       .  A
O88         Eu94   2.452       .  S
O89          C98   1.291       .  A
O89         Eu94   2.453   1_455  S
Eu90       O2487   2.420       .  S
Eu90         O96   2.338   1_655  S
Eu90       O2464   2.353       .  S
Eu90       O2508   2.352       .  S
Eu91       O2486   2.461   1_455  S
Eu91        O106   2.353       .  S
Eu91       O2473   2.354   1_455  S
Eu91       O2495   2.352   1_455  S
Eu92        O106   2.353       .  S
Eu92         O96   2.343       .  S
Eu93         O95   2.345       .  S
Eu93        O108   2.351       .  S
Eu94       O2481   2.471       .  S
Eu94        O106   2.357   1_655  S
Eu94         O96   2.351   1_655  S
Eu94       O2495   2.342       .  S
Eu94       O2508   2.351       .  S
O95       Eu2491   2.349       .  S
O95       Eu2494   2.341       .  S
C97         C557   1.485       .  S
C98         C573   1.476       .  S
C99         C381   1.499       .  S
C100        C394   1.500       .  S
C101        C346   1.489       .  S
C102        C362   1.494       .  S
C103        C330   1.488       .  S
C104        C298   1.499       .  S
H105        O106   0.964       .  S
H107        O108   0.966       .  S
O108      Eu2490   2.356       .  S
O108      Eu2494   2.356       .  S
O109        C120   1.287       .  A
O109       Eu145   2.450       .  S
O110        C121   1.293       .  A
O110       Eu144   2.479       .  S
O111        C122   1.290       .  A
O111       Eu117   2.460       .  S
O112        C123   1.292       .  A
O112      Eu1317   2.466   1_545  S
O113        C123   1.288       .  A
O113       Eu147   2.447       .  S
O114        C122   1.291       .  A
O114       Eu146   2.455       .  S
O115        C121   1.293       .  A
O115       Eu117   2.473       .  S
O116        C120   1.294       .  A
O116       Eu117   2.472       .  S
Eu117      O1312   2.463       .  S
Eu117       O119   2.355       .  S
Eu117       O125   2.351       .  S
Eu117      O1327   2.357       .  S
Eu117      O1318   2.357       .  S
O118       Eu147   2.365       .  S
O118      Eu1317   2.358   1_545  S
O118      Eu1344   2.353   1_545  S
O119       Eu145   2.348       .  S
O119       Eu146   2.349       .  S
C120       C1725   1.495       .  S
C121       C1709   1.486       .  S
C122        C234   1.480       .  S
C123        C218   1.468       .  S
H124        O125   0.965       .  S
O125       Eu146   2.359       .  S
O125       Eu144   2.350       .  S
H126        O127   0.964       .  S
O127       Eu147   2.353       .  S
O127      Eu1317   2.354   1_545  S
O127      Eu1345   2.350       .  S
O128        C151   1.289       .  A
O128       Eu144   2.449       .  S
O129        C152   1.288       .  A
O129       Eu145   2.451       .  S
O130        C153   1.291       .  A
O130       Eu146   2.469       .  S
O131        C154   1.295       .  A
O131       Eu147   2.483       .  S
O132        C155   1.297       .  A
O132       Eu147   2.486       .  S
O133        C156   1.297       .  A
O133       Eu146   2.490       .  S
O134        C157   1.291       .  A
O134       Eu148   2.459       .  S
O135        C158   1.290       .  A
O135      Eu1348   2.451       .  S
O136        C157   1.289       .  A
O136       Eu146   2.451       .  S
O137        C158   1.291       .  A
O137       Eu147   2.461       .  S
O138        C153   1.292       .  A
O138       Eu144   2.466       .  S
O139        C156   1.290       .  A
O139       Eu145   2.462       .  S
O140        C155   1.286       .  A
O140      Eu1345   2.447       .  S
O141        C154   1.291       .  A
O141      Eu1344   2.469   1_545  S
O142        C151   1.294       .  A
O142       Eu148   2.468       .  S
O143        C152   1.295       .  A
O143       Eu148   2.476       .  S
Eu144      O1341   2.464       .  S
Eu144       O150   2.361       .  S
Eu144      O1318   2.351       .  S
Eu144      O1362   2.364       .  S
Eu145      O1340   2.447       .  S
Eu145       O160   2.350       .  S
Eu145      O1327   2.355       .  S
Eu145      O1349   2.354       .  S
Eu146       O160   2.357       .  S
Eu146       O150   2.357       .  S
Eu147       O149   2.356       .  S
Eu147       O162   2.351       .  S
Eu148      O1335   2.463       .  S
Eu148       O160   2.360       .  S
Eu148       O150   2.360       .  S
Eu148      O1349   2.352       .  S
Eu148      O1362   2.354       .  S
O149      Eu1345   2.350       .  S
O149      Eu1348   2.353       .  S
C151       C1693   1.484       .  S
C152       C1674   1.490       .  S
C153        C333   1.491       .  S
C154        C317   1.500       .  S
C155        C285   1.500       .  S
C156        C301   1.503       .  S
C157        C250   1.470       .  S
C158        C266   1.482       .  S
H159        O160   0.968       .  S
H161        O162   0.966       .  S
O162      Eu1344   2.357   1_545  S
O162      Eu1348   2.357       .  S
O163        C174   1.291       .  A
O163       Eu199   2.453       .  S
O164        C175   1.289       .  A
O164       Eu198   2.456       .  S
O165        C176   1.286       .  A
O165       Eu771   2.447       .  S
O166        C177   1.293       .  A
O166       Eu171   2.466       .  S
O167        C177   1.286       .  A
O167       Eu201   2.452       .  S
O168        C176   1.294       .  A
O168       Eu200   2.469       .  S
O169        C175   1.289       .  A
O169       Eu171   2.444       .  S
O170        C174   1.286       .  A
O170       Eu171   2.441       .  S
Eu171       O765   2.448       .  S
Eu171       O181   2.349       .  S
Eu171       O172   2.343       .  S
Eu171       O773   2.352       .  S
Eu171       O779   2.356       .  S
O172       Eu201   2.345       .  S
O172       Eu198   2.347       .  S
O173       Eu200   2.361       .  S
O173       Eu771   2.361       .  S
O173       Eu799   2.353       .  S
C174       C1058   1.485       .  S
C175       C1045   1.482       .  S
C176        C365   1.498       .  S
C177        C378   1.504       .  S
H178        O179   0.964       .  S
O179       Eu200   2.365       .  S
O179       Eu771   2.357       .  S
O179       Eu798   2.350       .  S
H180        O181   0.966       .  S
O181       Eu199   2.357       .  S
O181       Eu201   2.344       .  S
O182        C205   1.291       .  A
O182       Eu198   2.449       .  S
O183        C206   1.291       .  A
O183       Eu199   2.469       .  S
O184        C207   1.291       .  A
O184       Eu200   2.464       .  S
O185        C208   1.292       .  A
O185       Eu201   2.469       .  S
O186        C209   1.295       .  A
O186       Eu201   2.475       .  S
O187        C210   1.293       .  A
O187       Eu200   2.470       .  S
O188        C211   1.293       .  A
O188       Eu802   2.470       .  S
O189        C212   1.295       .  A
O189       Eu202   2.470       .  S
O190        C211   1.293       .  A
O190       Eu200   2.479       .  S
O191        C212   1.284       .  A
O191       Eu201   2.438       .  S
O192        C207   1.293       .  A
O192       Eu798   2.470       .  S
O193        C210   1.290       .  A
O193       Eu799   2.460       .  S
O194        C209   1.289       .  A
O194       Eu199   2.454       .  S
O195        C208   1.291       .  A
O195       Eu198   2.462       .  S
O196        C205   1.288       .  A
O196       Eu202   2.457       .  S
O197        C206   1.293       .  A
O197       Eu202   2.465       .  S
Eu198       O792   2.473       .  S
Eu198       O216   2.354       .  S
Eu198       O779   2.355       .  S
Eu198       O804   2.353       .  S
Eu199       O793   2.459       .  S
Eu199       O203   2.353       .  S
Eu199       O773   2.350       .  S
Eu199       O814   2.349       .  S
Eu200       O214   2.356       .  S
Eu200       O204   2.354       .  S
Eu201       O203   2.356       .  S
Eu201       O216   2.354       .  S
Eu202       O788   2.473       .  S
Eu202       O203   2.356       .  S
Eu202       O216   2.357       .  S
Eu202       O814   2.353       .  S
Eu202       O804   2.351       .  S
O204       Eu798   2.357       .  S
O204       Eu802   2.358       .  S
C205       C1010   1.492       .  S
C206       C1026   1.498       .  S
C207        C237   1.484       .  S
C208        C253   1.477       .  S
C209        C269   1.484       .  S
C210        C221   1.474       .  S
C211        C349   1.497       .  S
C212        C397   1.502       .  S
H213        O214   0.966       .  S
O214       Eu799   2.353       .  S
O214       Eu802   2.351       .  S
H215        O216   0.966       .  S
C217        C218   1.399       .  A
C217        C222   1.405       .  A
C217        H224   1.084       .  S
C218        C219   1.414       .  A
C219        C220   1.408       .  A
C219        C226   1.519       .  S
C220        C221   1.404       .  A
C220        H225   1.081       .  S
C221        C222   1.413       .  A
C222        C223   1.515       .  S
C223        F227   1.384       .  S
C223        F228   1.383       .  S
C223        F229   1.382       .  S
C226        F230   1.380       .  S
C226        F231   1.383       .  S
C226        F232   1.385       .  S
C233        C234   1.403       .  A
C233        C238   1.408       .  A
C233        H240   1.084       .  S
C234        C235   1.417       .  A
C235        C236   1.409       .  A
C235        C242   1.521       .  S
C236        C237   1.405       .  A
C236        H241   1.083       .  S
C237        C238   1.420       .  A
C238        C239   1.521       .  S
C239        F243   1.385       .  S
C239        F244   1.382       .  S
C239        F245   1.383       .  S
C242        F246   1.383       .  S
C242        F247   1.382       .  S
C242        F248   1.381       .  S
C249        C250   1.399       .  A
C249        C254   1.405       .  A
C249        H256   1.083       .  S
C250        C251   1.415       .  A
C251        C252   1.408       .  A
C251        C258   1.519       .  S
C252        C253   1.404       .  A
C252        H257   1.083       .  S
C253        C254   1.417       .  A
C254        C255   1.517       .  S
C255        F259   1.385       .  S
C255        F260   1.381       .  S
C255        F261   1.383       .  S
C258        F262   1.384       .  S
C258        F263   1.382       .  S
C258        F264   1.384       .  S
C265        C266   1.403       .  A
C265        C270   1.409       .  A
C265        H272   1.083       .  S
C266        C267   1.416       .  A
C267        C268   1.406       .  A
C267        C274   1.515       .  S
C268        C269   1.402       .  A
C268        H273   1.083       .  S
C269        C270   1.422       .  A
C270        C271   1.520       .  S
C271        F275   1.386       .  S
C271        F276   1.383       .  S
C271        F277   1.382       .  S
C274        F278   1.381       .  S
C274        F279   1.384       .  S
C274        F280   1.383       .  S
C281        C282   1.405       .  A
C281        C286   1.409       .  A
C281        H288   1.082       .  S
C282        C283   1.427       .  A
C283        C284   1.408       .  A
C283        C290   1.523       .  S
C284        C285   1.403       .  A
C284        H289   1.077       .  S
C285        C286   1.426       .  A
C286        C287   1.521       .  S
C287        F291   1.384       .  S
C287        F292   1.383       .  S
C287        F293   1.379       .  S
C290        F294   1.383       .  S
C290        F295   1.383       .  S
C290        F296   1.384       .  S
C297        C298   1.404       .  A
C297        C302   1.412       .  A
C297        H304   1.083       .  S
C298        C299   1.424       .  A
C299        C300   1.414       .  A
C299        C306   1.522       .  S
C300        C301   1.408       .  A
C300        H305   1.083       .  S
C301        C302   1.427       .  A
C302        C303   1.522       .  S
C303        F307   1.385       .  S
C303        F308   1.383       .  S
C303        F309   1.382       .  S
C306        F310   1.382       .  S
C306        F311   1.384       .  S
C306        F312   1.385       .  S
C313        C314   1.403       .  A
C313        C318   1.410       .  A
C313        H320   1.083       .  S
C314        C315   1.424       .  A
C315        C316   1.413       .  A
C315        C322   1.519       .  S
C316        C317   1.405       .  A
C316        H321   1.083       .  S
C317        C318   1.423       .  A
C318        C319   1.514       .  S
C319        F323   1.382       .  S
C319        F324   1.379       .  S
C319        F325   1.385       .  S
C322        F326   1.383       .  S
C322        F327   1.383       .  S
C322        F328   1.385       .  S
C329        C330   1.404       .  A
C329        C334   1.410       .  A
C329        H336   1.083       .  S
C330        C331   1.421       .  A
C331        C332   1.408       .  A
C331        C338   1.521       .  S
C332        C333   1.404       .  A
C332        H337   1.082       .  S
C333        C334   1.421       .  A
C334        C335   1.519       .  S
C335        F339   1.384       .  S
C335        F340   1.383       .  S
C335        F341   1.382       .  S
C338        F342   1.382       .  S
C338        F343   1.381       .  S
C338        F344   1.384       .  S
C345        C346   1.402       .  A
C345        C350   1.407       .  A
C345        H352   1.083       .  S
C346        C347   1.421       .  A
C347        C348   1.412       .  A
C347        C354   1.521       .  S
C348        C349   1.408       .  A
C348        H353   1.083       .  S
C349        C350   1.422       .  A
C350        C351   1.516       .  S
C351        F355   1.385       .  S
C351        F356   1.379       .  S
C351        F357   1.382       .  S
C354        F358   1.383       .  S
C354        F359   1.383       .  S
C354        F360   1.384       .  S
C361        C362   1.402       .  A
C361        C366   1.403       .  A
C361        H368   1.078       .  S
C362        C363   1.425       .  A
C363        C364   1.409       .  A
C363        C370   1.524       .  S
C364        C365   1.408       .  A
C364        H369   1.082       .  S
C365        C366   1.427       .  A
C366        C367   1.524       .  S
C367        F371   1.383       .  S
C367        F372   1.379       .  S
C367        F373   1.384       .  S
C370        F374   1.384       .  S
C370        F375   1.383       .  S
C370        F376   1.385       .  S
C377        C378   1.411       .  A
C377        C382   1.411       .  A
C377        H384   1.082       .  S
C378        C379   1.429       .  A
C379        C380   1.405       .  A
C379        C386   1.525       .  S
C380        C381   1.405       .  A
C380        H385   1.080       .  S
C381        C382   1.425       .  A
C382        C383   1.525       .  S
C383        F387   1.383       .  S
C383        F388   1.384       .  S
C383        F389   1.385       .  S
C386        F390   1.385       .  S
C386        F391   1.384       .  S
C386        F392   1.383       .  S
C393        C394   1.406       .  A
C393        C398   1.407       .  A
C393        H400   1.081       .  S
C394        C395   1.430       .  A
C395        C396   1.406       .  A
C395        C402   1.528       .  S
C396        C397   1.407       .  A
C396        H401   1.081       .  S
C397        C398   1.430       .  A
C398        C399   1.526       .  S
C399        F403   1.385       .  S
C399        F404   1.384       .  S
C399        F405   1.383       .  S
C402        F406   1.384       .  S
C402        F407   1.384       .  S
C402        F408   1.384       .  S
C409        C410   1.404       .  A
C409        C414   1.405       .  A
C409        H416   1.082       .  S
C410        C805   1.484       .  S
C410       C1011   1.420   1_554  A
C411        C412   1.405       .  A
C411       C1010   1.422       .  A
C411        C418   1.523       .  S
C412       C1013   1.406       .  A
C412        H417   1.079       .  S
C413        C414   1.424       .  A
C413       C1012   1.409   1_554  A
C414        C415   1.520       .  S
C415        F419   1.383       .  S
C415        F421   1.383       .  S
C415       F1020   1.379       .  S
C418        F422   1.383       .  S
C418        F424   1.384       .  S
C418       F1023   1.383       .  S
F420       C1015   1.379       .  S
F423       C1018   1.383       .  S
C425        C426   1.407   1_554  A
C425        C430   1.409       .  A
C425        H432   1.083       .  S
C426        C806   1.495       .  S
C426       C1027   1.421       .  A
C427        C428   1.410       .  A
C427       C1026   1.423       .  A
C427        C434   1.521       .  S
C428       C1029   1.407       .  A
C428        H433   1.082       .  S
C429        C430   1.423   1_556  A
C429       C1028   1.409       .  A
C430        C431   1.522       .  S
C431        F435   1.385       .  S
C431        F437   1.382       .  S
C431       F1036   1.383       .  S
C434        F438   1.383       .  S
C434        F440   1.384       .  S
C434       F1039   1.383       .  S
F436       C1031   1.382       .  S
F439       C1034   1.383       .  S
C441        C446   1.408       .  A
C441       C1042   1.408       .  A
C441        H448   1.083       .  S
C442        C443   1.423       .  A
C442       C1041   1.406   1_556  A
C443        C444   1.410       .  A
C443        C450   1.520       .  S
C444        C445   1.408       .  A
C444        H449   1.083       .  S
C445        C775   1.492       .  S
C445       C1046   1.421   1_556  A
C446       C1045   1.417       .  A
C446        C447   1.521       .  S
C447        F451   1.382       .  S
C447        F452   1.383       .  S
C447        F453   1.383       .  S
C450        F454   1.381       .  S
C450        F455   1.383       .  S
C450        F456   1.385       .  S
C457        C458   1.406   1_554  A
C457        C462   1.407       .  A
C457        H464   1.081       .  S
C458        C774   1.496       .  S
C458       C1059   1.422       .  A
C459        C460   1.408       .  A
C459       C1058   1.421       .  A
C459        C466   1.525       .  S
C460       C1061   1.408       .  A
C460        H465   1.080       .  S
C461        C462   1.428   1_556  A
C461       C1060   1.410       .  A
C462        C463   1.525       .  S
C463        F469   1.378       .  S
C463       F1067   1.385       .  S
C463       F1068   1.383   1_554  S
C466        F470   1.384       .  S
C466       F1071   1.382       .  S
C466       F1072   1.384       .  S
F467       C1063   1.385       .  S
F468       C1063   1.383       .  S
F471       C1066   1.380       .  S
F472       C1066   1.385       .  S
C473        C478   1.408       .  A
C473       C1674   1.403       .  A
C473        H480   1.083       .  S
C474       C1352   1.496       .  S
C474        C475   1.422       .  A
C474       C1673   1.404   1_545  A
C475        C476   1.409       .  A
C475        C482   1.516       .  S
C476        C477   1.403       .  A
C476        H481   1.083       .  S
C477       C1678   1.426   1_545  A
C478       C1677   1.425       .  A
C478        C479   1.521       .  S
C479        F485   1.383       .  S
C479       F1683   1.385       .  S
C479       F1684   1.381       .  S
C482        F486   1.383       .  S
C482       F1687   1.380       .  S
C482       F1688   1.385       .  S
F483       C1679   1.385       .  S
F484       C1679   1.382       .  S
F487       C1682   1.382       .  S
F488       C1682   1.385       .  S
C489        C490   1.404   1_545  A
C489        C494   1.407       .  A
C489        H496   1.082       .  S
C490       C1691   1.425       .  A
C491        C492   1.405       .  A
C491       C1690   1.422       .  A
C491        C498   1.522       .  S
C492       C1693   1.403       .  A
C492        H497   1.083       .  S
C493       C1351   1.487       .  S
C493        C494   1.422   1_565  A
C493       C1692   1.404       .  A
C494        C495   1.522       .  S
C495        F499   1.385       .  S
C495        F500   1.382       .  S
C495        F501   1.383       .  S
C498        F502   1.383       .  S
C498        F503   1.383       .  S
C498        F504   1.384       .  S
C505        C510   1.412       .  A
C505       C1706   1.405       .  A
C505        H512   1.083       .  S
C506        C507   1.416   1_565  A
C506       C1705   1.407       .  A
C507        C508   1.409       .  A
C507        C514   1.520       .  S
C508        C509   1.401   1_545  A
C508        H513   1.075       .  S
C509       C1321   1.488       .  S
C509       C1710   1.417       .  A
C510       C1709   1.417       .  A
C510        C511   1.517       .  S
C511        F515   1.385       .  S
C511        F517   1.382       .  S
C511       F1716   1.381       .  S
C514        F518   1.382       .  S
C514        F520   1.385       .  S
C514       F1719   1.379       .  S
F516       C1711   1.383       .  S
F519       C1714   1.381       .  S
C521        C526   1.405       .  A
C521       C1722   1.404       .  A
C521        H528   1.074       .  S
C522        C523   1.423       .  A
C522       C1721   1.405   1_545  A
C523        C524   1.407       .  A
C523        C530   1.523       .  S
C524        C525   1.404   1_545  A
C524        H529   1.081       .  S
C525       C1320   1.490       .  S
C525       C1726   1.421       .  A
C526       C1725   1.423       .  A
C526        C527   1.525       .  S
C527        F531   1.384       .  S
C527        F532   1.383       .  S
C527       F1733   1.379       .  S
C530        F535   1.384       .  S
C530        F536   1.385       .  S
C530       F1734   1.382       .  S
F533       C1727   1.380       .  S
F534       C1730   1.382       .  S
C537        C538   1.399   1_455  A
C537        C542   1.404       .  A
C537        H544   1.084       .  S
C538       C2939   1.414       .  A
C539        C540   1.409       .  A
C539       C2938   1.415       .  A
C539        C546   1.517       .  S
C540       C2941   1.402       .  A
C540        H545   1.083       .  S
C541        C542   1.415   1_655  A
C541       C2940   1.404       .  A
C542        C543   1.514       .  S
C543        F547   1.385       .  S
C543        F548   1.381       .  S
C543        F549   1.377       .  S
C546        F550   1.383       .  S
C546        F551   1.383       .  S
C546        F552   1.384       .  S
C553        C554   1.402   1_455  A
C553        C558   1.406       .  A
C553        H560   1.083       .  S
C554       C2955   1.418       .  A
C555        C556   1.404       .  A
C555       C2954   1.417       .  A
C555        C562   1.516       .  S
C556       C2957   1.400       .  A
C556        H561   1.083       .  S
C557        C558   1.421   1_655  A
C557       C2956   1.403       .  A
C558        C559   1.519       .  S
C559        F563   1.385       .  S
C559        F564   1.382       .  S
C559        F565   1.383       .  S
C562        F566   1.384       .  S
C562        F567   1.382       .  S
C562        F568   1.384       .  S
C569        C570   1.402       .  A
C569        C574   1.407       .  A
C569        H576   1.083       .  S
C570       C2971   1.417   1_455  A
C571        C572   1.405       .  A
C571       C2970   1.415       .  A
C571        C578   1.510       .  S
C572       C2973   1.402       .  A
C572        H577   1.084       .  S
C573        C574   1.417       .  A
C573       C2972   1.398   1_455  A
C574        C575   1.514       .  S
C575        F579   1.384       .  S
C575        F580   1.382       .  S
C575        F581   1.383       .  S
C578        F582   1.384       .  S
C578        F583   1.376       .  S
C578        F584   1.385       .  S
C585        C590   1.407       .  A
C585       C2986   1.402       .  A
C585        H592   1.084       .  S
C586        C587   1.422       .  A
C586       C2985   1.405   1_455  A
C587        C588   1.407       .  A
C587        C594   1.521       .  S
C588        C589   1.401       .  A
C588        H593   1.083       .  S
C589       C2990   1.418   1_455  A
C590       C2989   1.419       .  A
C590        C591   1.519       .  S
C591        F595   1.385       .  S
C591        F596   1.382       .  S
C591        F597   1.382       .  S
C594        F598   1.383       .  S
C594        F599   1.382       .  S
C594        F600   1.385       .  S
O601        C612   1.289       .  A
O601       Eu637   2.452   1_445  S
O602        C613   1.292       .  A
O602       Eu636   2.470       .  S
O603        C614   1.292       .  A
O603       Eu609   2.461       .  S
O604        C615   1.292       .  A
O604      Eu3009   2.472       .  S
O605        C615   1.292       .  A
O605       Eu639   2.461       .  S
O606        C614   1.290       .  A
O606       Eu638   2.467       .  S
O607        C613   1.292       .  A
O608        C612   1.293       .  A
O608       Eu609   2.469       .  S
Eu609      O3004   2.464   1_455  S
Eu609      O3019   2.357   1_455  S
Eu609       O611   2.359       .  S
Eu609      O2410   2.355   1_455  S
O610      Eu2409   2.353   1_556  S
O610      Eu3036   2.351       .  S
O611       Eu637   2.359   1_445  S
O611       Eu638   2.352       .  S
C612       C1189   1.481   1_455  S
C613       C1141   1.481       .  S
C614       C1061   1.496       .  S
C615       C1029   1.498       .  S
H616        O617   0.966       .  S
O617       Eu636   2.362   1_455  S
H618        O619   0.966       .  S
O619      Eu3009   2.349       .  S
O619      Eu3037   2.351   1_545  S
O619       Eu639   2.348       .  S
O620        C643   1.290       .  A
O620      Eu1836   2.456       .  S
O621        C644   1.292       .  A
O621      Eu1837   2.465   1_655  S
O622        C645   1.288       .  A
O623        C646   1.289       .  A
O624        C647   1.286       .  A
O624       Eu639   2.443       .  S
O625        C648   1.291       .  A
O625       Eu638   2.461   1_565  S
O626        C649   1.293       .  A
O626       Eu640   2.476       .  S
O627        C650   1.293       .  A
O627      Eu3040   2.463       .  S
O628        C649   1.291       .  A
O628      Eu1838   2.455       .  S
O629        C650   1.287       .  A
O629      Eu1839   2.452       .  S
O630        C645   1.294       .  A
O630       Eu636   2.472   1_465  S
O631        C648   1.292       .  A
O631       Eu637   2.464   1_455  S
O632        C647   1.296       .  A
O632      Eu3037   2.484   1_545  S
O633        C646   1.297       .  A
O633      Eu3036   2.493       .  S
O634        C643   1.294       .  A
O635        C644   1.288   1_455  A
O635       Eu640   2.441       .  S
Eu636      O1820   2.462   1_545  S
Eu636      O3033   2.479       .  S
Eu636      O3010   2.354       .  S
Eu636      O4254   2.361   1_545  S
Eu636      O1842   2.357   1_645  S
Eu637      O1821   2.458       .  S
Eu637      O3032   2.475       .  S
Eu637      O3019   2.357   1_565  S
Eu637      O4241   2.348       .  S
Eu637      O1852   2.350   1_655  S
Eu638      O1828   2.467   1_545  S
Eu638      O1852   2.345   1_545  S
Eu638      O1242   2.352   1_545  S
Eu639      O1829   2.453   1_545  S
Eu639      O1841   2.351   1_545  S
Eu639      O1254   2.358   1_545  S
Eu640      O3027   2.460   1_455  S
Eu640      O3041   2.354   1_455  S
Eu640       O652   2.352       .  S
Eu640      O2454   2.360   1_455  S
O641      Eu4237   2.348       .  S
O641      Eu1839   2.348       .  S
O641      Eu3040   2.355       .  S
O642      Eu1836   2.358   1_455  S
O642      Eu1238   2.349       .  S
C643       C1154   1.477       .  S
C644       C1170   1.476       .  S
C645       C1090   1.484       .  S
C646       C1077   1.504       .  S
C647       C1122   1.497       .  S
C648       C1106   1.474       .  S
C649       C1042   1.492       .  S
C650       C1013   1.495       .  S
H651        O652   0.966       .  S
O652      Eu1837   2.361       .  S
O652      Eu1838   2.350       .  S
H653        O654   0.966       .  S
O654      Eu4236   2.359       .  S
O654      Eu1239   2.359   1_556  S
O654      Eu2440   2.354       .  S
O655        C666   1.287       .  A
O655       Eu691   2.441       .  S
O656        C667   1.295       .  A
O656       Eu690   2.483       .  S
O657        C668   1.294       .  A
O657       Eu663   2.473   1_455  S
O658        C669   1.295       .  A
O658      Eu3063   2.476       .  S
O659        C669   1.284       .  A
O659       Eu693   2.434       .  S
O660        C668   1.291       .  A
O660       Eu692   2.458       .  S
O661        C667   1.289       .  A
O661       Eu663   2.448       .  S
O662        C666   1.294   1_655  A
O662       Eu663   2.479       .  S
Eu663      O3058   2.481       .  S
Eu663      O3073   2.347       .  S
Eu663       O665   2.354   1_655  S
Eu663      O3064   2.353       .  S
Eu663       O671   2.368   1_655  S
O664      Eu3063   2.354       .  S
O664       Eu693   2.348       .  S
O664      Eu3090   2.351       .  S
O665       Eu691   2.346       .  S
O665       Eu692   2.364       .  S
C666       C1186   1.485       .  S
C667       C1138   1.478       .  S
C668        C914   1.482       .  S
C669        C882   1.495       .  S
H670        O671   0.966       .  S
O671       Eu692   2.348       .  S
O671       Eu690   2.343   1_455  S
H672        O673   0.966       .  S
O673      Eu3063   2.351       .  S
O673      Eu3091   2.351       .  S
O673       Eu693   2.360       .  S
O674        C697   1.292       .  A
O674       Eu690   2.469       .  S
O675        C698   1.284       .  A
O675       Eu691   2.424       .  S
O676        C699   1.293       .  A
O676       Eu692   2.462       .  S
O677        C700   1.296       .  A
O677       Eu693   2.484       .  S
O678        C701   1.295       .  A
O678       Eu693   2.479       .  S
O679        C702   1.284       .  A
O679       Eu692   2.436       .  S
O680        C703   1.292       .  A
O680       Eu694   2.467   1_455  S
O681        C704   1.295       .  A
O681      Eu3094   2.478       .  S
O682        C703   1.292       .  A
O682       Eu692   2.462       .  S
O683        C704   1.287       .  A
O683       Eu693   2.444       .  S
O684        C699   1.283       .  A
O684       Eu690   2.435   1_455  S
O685        C702   1.296       .  A
O685       Eu691   2.480       .  S
O686        C701   1.291       .  A
O686      Eu3091   2.464       .  S
O687        C700   1.285       .  A
O687      Eu3090   2.434       .  S
O688        C697   1.290       .  A
O688       Eu694   2.456       .  S
O689        C698   1.293   1_655  A
O689       Eu694   2.461       .  S
Eu690      O3087   2.413       .  S
Eu690      O3064   2.349       .  S
Eu690      O3108   2.361       .  S
Eu690       O696   2.347   1_655  S
Eu691      O3086   2.460   1_455  S
Eu691      O3073   2.351   1_455  S
Eu691      O3095   2.356   1_455  S
Eu691       O706   2.345       .  S
Eu692       O706   2.352       .  S
Eu692       O696   2.343       .  S
Eu693       O695   2.354       .  S
Eu693       O708   2.351       .  S
Eu694      O3081   2.473       .  S
Eu694      O3095   2.345       .  S
Eu694       O706   2.348   1_655  S
Eu694      O3108   2.359       .  S
Eu694       O696   2.362   1_655  S
O695      Eu3091   2.360       .  S
O695      Eu3094   2.351       .  S
C697       C1157   1.473   1_655  S
C698       C1173   1.471   1_455  S
C699        C981   1.503       .  S
C700        C994   1.492       .  S
C701        C946   1.495       .  S
C702        C962   1.502       .  S
C703        C930   1.479       .  S
C704        C898   1.486       .  S
H705        O706   0.964       .  S
H707        O708   0.966       .  S
O708      Eu3090   2.356       .  S
O708      Eu3094   2.354       .  S
O709        C720   1.288       .  A
O709       Eu745   2.459       .  S
O710        C721   1.295       .  A
O710       Eu744   2.483       .  S
O711        C722   1.289       .  A
O711       Eu717   2.455       .  S
O712        C723   1.294       .  A
O712      Eu1917   2.476       .  S
O713        C723   1.288       .  A
O713       Eu747   2.444       .  S
O714        C722   1.295       .  A
O714       Eu746   2.481       .  S
O715        C721   1.288       .  A
O715       Eu717   2.448       .  S
O716        C720   1.290       .  A
O716       Eu717   2.457       .  S
Eu717      O1912   2.460       .  S
Eu717      O1927   2.349       .  S
Eu717       O719   2.359       .  S
Eu717      O1918   2.357       .  S
Eu717       O725   2.356       .  S
O718      Eu1917   2.362       .  S
O718       Eu747   2.366       .  S
O718      Eu1944   2.353       .  S
O719       Eu745   2.348       .  S
O719       Eu746   2.356       .  S
C720       C2325   1.495       .  S
C721       C2309   1.482       .  S
C722        C834   1.483       .  S
C723        C818   1.470       .  S
H724        O725   0.965       .  S
O725       Eu746   2.361       .  S
O725       Eu744   2.356       .  S
H726        O727   0.964       .  S
O727      Eu1917   2.355       .  S
O727      Eu1945   2.356       .  S
O727       Eu747   2.359       .  S
O728        C751   1.290       .  A
O728       Eu744   2.454       .  S
O729        C752   1.287       .  A
O729       Eu745   2.451       .  S
O730        C753   1.291       .  A
O730       Eu746   2.460       .  S
O731        C754   1.295       .  A
O731       Eu747   2.485       .  S
O732        C755   1.298       .  A
O732       Eu747   2.493       .  S
O733        C756   1.294       .  A
O733       Eu746   2.471       .  S
O734        C757   1.291       .  A
O734       Eu748   2.461       .  S
O735        C758   1.293       .  A
O735      Eu1948   2.471       .  S
O736        C757   1.293       .  A
O736       Eu746   2.470       .  S
O737        C758   1.289       .  A
O737       Eu747   2.449       .  S
O738        C753   1.293       .  A
O738       Eu744   2.475       .  S
O739        C756   1.288       .  A
O739       Eu745   2.452       .  S
O740        C755   1.285       .  A
O740      Eu1945   2.441       .  S
O741        C754   1.290       .  A
O741      Eu1944   2.460       .  S
O742        C751   1.294       .  A
O742       Eu748   2.477       .  S
O743        C752   1.296       .  A
O743       Eu748   2.485       .  S
Eu744      O1941   2.469       .  S
Eu744      O1918   2.351       .  S
Eu744      O1962   2.361       .  S
Eu744       O750   2.358       .  S
Eu745      O1940   2.439       .  S
Eu745      O1927   2.351       .  S
Eu745      O1949   2.351       .  S
Eu745       O760   2.350       .  S
Eu746       O760   2.359       .  S
Eu746       O750   2.359       .  S
Eu747       O749   2.355       .  S
Eu747       O762   2.355       .  S
Eu748      O1935   2.470       .  S
Eu748      O1949   2.352       .  S
Eu748       O760   2.358       .  S
Eu748      O1962   2.350       .  S
Eu748       O750   2.363       .  S
O749      Eu1945   2.354       .  S
O749      Eu1948   2.358       .  S
C751       C2293   1.478       .  S
C752       C2274   1.501       .  S
C753        C933   1.480       .  S
C754        C917   1.490       .  S
C755        C885   1.502       .  S
C756        C901   1.490       .  S
C757        C850   1.477       .  S
C758        C866   1.482       .  S
H759        O760   0.967       .  S
H761        O762   0.965       .  S
O762      Eu1944   2.356       .  S
O762      Eu1948   2.359       .  S
O763        C774   1.292       .  A
O763       Eu799   2.458   1_556  S
O764        C775   1.290       .  A
O764       Eu798   2.464   1_556  S
O765        C776   1.286       .  A
O766        C777   1.296       .  A
O766       Eu771   2.482   1_556  S
O767        C777   1.287       .  A
O767       Eu801   2.454       .  S
O768        C776   1.293       .  A
O768       Eu800   2.464       .  S
O769        C775   1.291   1_554  A
O769       Eu771   2.454       .  S
O770        C774   1.287       .  A
O770       Eu771   2.449   1_556  S
Eu771       O781   2.341   1_554  S
Eu771       O772   2.341   1_554  S
O772       Eu801   2.347       .  S
O772       Eu798   2.349   1_556  S
O773       Eu800   2.349       .  S
C776        C965   1.501       .  S
C777        C978   1.511       .  S
H778        O779   0.963       .  S
O779       Eu800   2.360       .  S
H780        O781   0.965       .  S
O781       Eu799   2.357   1_556  S
O781       Eu801   2.344       .  S
O782        C805   1.292       .  A
O782       Eu798   2.452       .  S
O783        C806   1.291       .  A
O783       Eu799   2.471   1_556  S
O784        C807   1.289       .  A
O784       Eu800   2.447       .  S
O785        C808   1.293       .  A
O785       Eu801   2.474       .  S
O786        C809   1.295       .  A
O786       Eu801   2.474       .  S
O787        C810   1.290       .  A
O787       Eu800   2.455       .  S
O788        C811   1.294       .  A
O789        C812   1.294       .  A
O789       Eu802   2.466   1_556  S
O790        C811   1.292       .  A
O790       Eu800   2.465       .  S
O791        C812   1.286       .  A
O791       Eu801   2.443       .  S
O792        C807   1.293       .  A
O793        C810   1.290       .  A
O794        C809   1.288       .  A
O794       Eu799   2.450   1_556  S
O795        C808   1.291       .  A
O795       Eu798   2.463   1_556  S
O796        C805   1.286       .  A
O796       Eu802   2.440       .  S
O797        C806   1.291       .  A
O797       Eu802   2.451   1_556  S
Eu798       O816   2.354   1_554  S
Eu799       O803   2.353   1_554  S
Eu800       O814   2.350       .  S
Eu800       O804   2.351       .  S
Eu801       O803   2.357       .  S
Eu801       O816   2.353       .  S
Eu802       O803   2.353   1_554  S
Eu802       O816   2.354   1_554  S
C807        C837   1.481       .  S
C808        C853   1.479       .  S
C809        C869   1.480       .  S
C810        C821   1.471       .  S
C811        C949   1.493       .  S
C812        C997   1.493       .  S
H813        O814   0.966       .  S
H815        O816   0.966       .  S
C817        C818   1.401       .  A
C817        C822   1.407       .  A
C817        H824   1.083       .  S
C818        C819   1.413       .  A
C819        C820   1.404       .  A
C819        C826   1.516       .  S
C820        C821   1.401       .  A
C820        H825   1.082       .  S
C821        C822   1.415       .  A
C822        C823   1.516       .  S
C823        F827   1.385       .  S
C823        F828   1.383       .  S
C823        F829   1.382       .  S
C826        F830   1.378       .  S
C826        F831   1.383       .  S
C826        F832   1.385       .  S
C833        C834   1.401       .  A
C833        C838   1.407       .  A
C833        H840   1.083       .  S
C834        C835   1.420       .  A
C835        C836   1.411       .  A
C835        C842   1.519       .  S
C836        C837   1.403       .  A
C836        H841   1.084       .  S
C837        C838   1.419       .  A
C838        C839   1.519       .  S
C839        F843   1.384       .  S
C839        F844   1.382       .  S
C839        F845   1.383       .  S
C842        F846   1.384       .  S
C842        F847   1.382       .  S
C842        F848   1.384       .  S
C849        C850   1.403       .  A
C849        C854   1.410       .  A
C849        H856   1.083       .  S
C850        C851   1.415       .  A
C851        C852   1.409       .  A
C851        C858   1.518       .  S
C852        C853   1.402       .  A
C852        H857   1.082       .  S
C853        C854   1.415       .  A
C854        C855   1.516       .  S
C855        F859   1.382       .  S
C855        F860   1.383       .  S
C855        F861   1.383       .  S
C858        F862   1.383       .  S
C858        F863   1.382       .  S
C858        F864   1.384       .  S
C865        C866   1.403       .  A
C865        C870   1.409       .  A
C865        H872   1.083       .  S
C866        C867   1.418       .  A
C867        C868   1.403       .  A
C867        C874   1.514       .  S
C868        C869   1.399       .  A
C868        H873   1.084       .  S
C869        C870   1.421       .  A
C870        C871   1.519       .  S
C871        F875   1.385       .  S
C871        F876   1.383       .  S
C871        F877   1.381       .  S
C874        F878   1.382       .  S
C874        F879   1.384       .  S
C874        F880   1.384       .  S
C881        C882   1.404       .  A
C881        C886   1.407       .  A
C881        H888   1.082       .  S
C882        C883   1.425       .  A
C883        C884   1.407       .  A
C883        C890   1.524       .  S
C884        C885   1.404       .  A
C884        H889   1.077       .  S
C885        C886   1.428       .  A
C886        C887   1.521       .  S
C887        F891   1.385       .  S
C887        F892   1.383       .  S
C887        F893   1.378       .  S
C890        F894   1.383       .  S
C890        F895   1.383       .  S
C890        F896   1.383       .  S
C897        C898   1.403       .  A
C897        C902   1.409       .  A
C897        H904   1.083       .  S
C898        C899   1.421       .  A
C899        C900   1.407       .  A
C899        C906   1.521       .  S
C900        C901   1.404       .  A
C900        H905   1.083       .  S
C901        C902   1.424       .  A
C902        C903   1.519       .  S
C903        F907   1.385       .  S
C903        F908   1.383       .  S
C903        F909   1.381       .  S
C906        F910   1.383       .  S
C906        F911   1.384       .  S
C906        F912   1.385       .  S
C913        C914   1.397       .  A
C913        C918   1.405       .  A
C913        H920   1.084       .  S
C914        C915   1.419       .  A
C915        C916   1.414       .  A
C915        C922   1.518       .  S
C916        C917   1.406       .  A
C916        H921   1.083       .  S
C917        C918   1.418       .  A
C918        C919   1.512       .  S
C919        F923   1.383       .  S
C919        F924   1.382       .  S
C919        F925   1.381       .  S
C922        F926   1.384       .  S
C922        F927   1.382       .  S
C922        F928   1.385       .  S
C929        C930   1.401       .  A
C929        C934   1.405       .  A
C929        H936   1.084       .  S
C930        C931   1.419       .  A
C931        C932   1.409       .  A
C931        C938   1.517       .  S
C932        C933   1.403       .  A
C932        H937   1.083       .  S
C933        C934   1.417       .  A
C934        C935   1.517       .  S
C935        F939   1.385       .  S
C935        F940   1.383       .  S
C935        F941   1.382       .  S
C938        F942   1.382       .  S
C938        F943   1.381       .  S
C938        F944   1.386       .  S
C945        C946   1.406       .  A
C945        C950   1.411       .  A
C945        H952   1.083       .  S
C946        C947   1.423       .  A
C947        C948   1.410       .  A
C947        C954   1.520       .  S
C948        C949   1.404       .  A
C948        H953   1.083       .  S
C949        C950   1.422       .  A
C950        C951   1.519       .  S
C951        F955   1.385       .  S
C951        F956   1.382       .  S
C951        F957   1.383       .  S
C954        F958   1.383       .  S
C954        F959   1.383       .  S
C954        F960   1.385       .  S
C961        C962   1.406       .  A
C961        C966   1.406       .  A
C961        H968   1.080       .  S
C962        C963   1.430       .  A
C963        C964   1.408       .  A
C963        C970   1.526       .  S
C964        C965   1.406       .  A
C964        H969   1.079       .  S
C965        C966   1.426       .  A
C966        C967   1.523       .  S
C967        F971   1.384       .  S
C967        F972   1.383       .  S
C967        F973   1.384       .  S
C970        F974   1.383       .  S
C970        F975   1.383       .  S
C970        F976   1.385       .  S
C977        C978   1.411       .  A
C977        C982   1.412       .  A
C977        H984   1.081       .  S
C978        C979   1.430       .  A
C979        C980   1.406       .  A
C979        C986   1.524       .  S
C980        C981   1.405       .  A
C980        H985   1.080       .  S
C981        C982   1.428       .  A
C982        C983   1.526       .  S
C983        F987   1.384       .  S
C983        F988   1.384       .  S
C983        F989   1.384       .  S
C986        F990   1.386       .  S
C986        F991   1.383       .  S
C986        F992   1.383       .  S
C993        C994   1.403       .  A
C993        C998   1.407       .  A
C993       H1000   1.083       .  S
C994        C995   1.425       .  A
C995        C996   1.406       .  A
C995       C1002   1.521       .  S
C996        C997   1.404       .  A
C996       H1001   1.083       .  S
C997        C998   1.425       .  A
C998        C999   1.520       .  S
C999       F1003   1.385       .  S
C999       F1004   1.380       .  S
C999       F1005   1.384       .  S
C1002      F1006   1.383       .  S
C1002      F1007   1.381       .  S
C1002      F1008   1.385       .  S
C1009      C1010   1.407       .  A
C1009      C1014   1.408       .  A
C1009      H1016   1.083       .  S
C1011      C1012   1.404       .  A
C1011      C1018   1.524       .  S
C1012      H1017   1.082       .  S
C1013      C1014   1.424       .  A
C1014      C1015   1.523       .  S
C1015      F1019   1.385       .  S
C1015      F1021   1.383       .  S
C1018      F1022   1.383       .  S
C1018      F1024   1.385       .  S
C1025      C1026   1.408       .  A
C1025      C1030   1.411       .  A
C1025      H1032   1.083       .  S
C1027      C1028   1.411       .  A
C1027      C1034   1.522       .  S
C1028      H1033   1.083       .  S
C1029      C1030   1.423       .  A
C1030      C1031   1.521       .  S
C1031      F1035   1.385       .  S
C1031      F1037   1.381       .  S
C1034      F1038   1.384       .  S
C1034      F1040   1.384       .  S
C1041      C1046   1.406       .  A
C1041      H1048   1.083       .  S
C1042      C1043   1.422       .  A
C1043      C1044   1.407       .  A
C1043      C1050   1.519       .  S
C1044      C1045   1.403       .  A
C1044      H1049   1.084       .  S
C1046      C1047   1.521       .  S
C1047      F1051   1.385       .  S
C1047      F1052   1.383       .  S
C1047      F1053   1.383       .  S
C1050      F1054   1.383       .  S
C1050      F1055   1.382       .  S
C1050      F1056   1.385       .  S
C1057      C1058   1.403       .  A
C1057      C1062   1.405       .  A
C1057      H1064   1.082       .  S
C1059      C1060   1.406       .  A
C1059      C1066   1.524       .  S
C1060      H1065   1.080       .  S
C1061      C1062   1.424       .  A
C1062      C1063   1.520       .  S
C1063      F1069   1.381       .  S
C1066      F1070   1.384       .  S
C1073      C2274   1.405       .  A
C1073      C1078   1.410       .  A
C1073      H1080   1.082       .  S
C1074      C1952   1.502       .  S
C1074      C2273   1.404   1_545  A
C1074      C1075   1.425       .  A
C1075      C1076   1.413       .  A
C1075      C1082   1.519       .  S
C1076      C1077   1.406       .  A
C1076      H1081   1.083       .  S
C1077      C2278   1.427   1_545  A
C1078      C2277   1.426       .  A
C1078      C1079   1.520       .  S
C1079      F2283   1.385       .  S
C1079      F2284   1.382       .  S
C1079      F1085   1.384       .  S
C1082      F1086   1.384       .  S
C1082      F2287   1.381       .  S
C1082      F2288   1.382       .  S
F1083      C2279   1.385       .  S
F1084      C2279   1.382       .  S
F1087      C2282   1.379       .  S
F1088      C2282   1.384       .  S
C1089      C1090   1.402   1_545  A
C1089      C1094   1.406       .  A
C1089      H1096   1.083       .  S
C1090      C2291   1.422       .  A
C1091      C2290   1.416       .  A
C1091      C1092   1.407       .  A
C1091      C1098   1.518       .  S
C1092      C2293   1.402       .  A
C1092      H1097   1.084       .  S
C1093      C1951   1.483       .  S
C1093      C2292   1.405       .  A
C1093      C1094   1.420   1_565  A
C1094      C1095   1.521       .  S
C1095      F1099   1.384       .  S
C1095      F1100   1.383       .  S
C1095      F1101   1.384       .  S
C1098      F1102   1.383       .  S
C1098      F1103   1.382       .  S
C1098      F1104   1.381       .  S
C1105      C2306   1.406       .  A
C1105      C1110   1.412       .  A
C1105      H1112   1.083       .  S
C1106      C2305   1.407       .  A
C1106      C1107   1.416   1_565  A
C1107      C1108   1.406       .  A
C1107      C1114   1.524       .  S
C1108      C1109   1.401   1_545  A
C1108      H1113   1.076       .  S
C1109      C1921   1.486       .  S
C1109      C2310   1.417       .  A
C1110      C2309   1.416       .  A
C1110      C1111   1.519       .  S
C1111      F1115   1.383       .  S
C1111      F2316   1.383       .  S
C1111      F1117   1.383       .  S
C1114      F1118   1.380       .  S
C1114      F2319   1.381       .  S
C1114      F1120   1.383       .  S
F1116      C2311   1.382       .  S
F1119      C2314   1.383       .  S
C1121      C2322   1.403       .  A
C1121      C1126   1.406       .  A
C1121      H1128   1.075       .  S
C1122      C2321   1.403   1_545  A
C1122      C1123   1.425       .  A
C1123      C1124   1.407       .  A
C1123      C1130   1.523       .  S
C1124      C1125   1.406       .  A
C1124      H1129   1.080       .  S
C1125      C1920   1.498       .  S
C1125      C2326   1.425   1_545  A
C1126      C2325   1.422       .  A
C1126      C1127   1.522       .  S
C1127      F1131   1.379       .  S
C1127      F1132   1.384       .  S
C1127      F2333   1.380       .  S
C1130      F2334   1.382       .  S
C1130      F1135   1.383       .  S
C1130      F1136   1.386       .  S
F1133      C2327   1.380       .  S
F1134      C2330   1.382       .  S
C1137      C1138   1.401   1_455  A
C1137      C1142   1.407       .  A
C1137      H1144   1.084       .  S
C1138      C3539   1.418       .  A
C1139      C3538   1.417       .  A
C1139      C1140   1.409       .  A
C1139      C1146   1.518       .  S
C1140      C3541   1.405       .  A
C1140      H1145   1.084       .  S
C1141      C3540   1.403       .  A
C1141      C1142   1.416   1_655  A
C1142      C1143   1.515       .  S
C1143      F1147   1.385       .  S
C1143      F1148   1.383       .  S
C1143      F1149   1.377       .  S
C1146      F1150   1.382       .  S
C1146      F1151   1.383       .  S
C1146      F1152   1.383       .  S
C1153      C1154   1.404   1_455  A
C1153      C1158   1.409       .  A
C1153      H1160   1.082       .  S
C1154      C3555   1.415       .  A
C1155      C3554   1.413       .  A
C1155      C1156   1.406       .  A
C1155      C1162   1.517       .  S
C1156      C3557   1.403       .  A
C1156      H1161   1.084       .  S
C1157      C3556   1.401   1_455  A
C1157      C1158   1.414       .  A
C1158      C1159   1.518       .  S
C1159      F1163   1.384       .  S
C1159      F1164   1.383       .  S
C1159      F1165   1.383       .  S
C1162      F1166   1.383       .  S
C1162      F1167   1.382       .  S
C1162      F1168   1.385       .  S
C1169      C1170   1.405   1_455  A
C1169      C1174   1.406       .  A
C1169      H1176   1.083       .  S
C1170      C3571   1.415       .  A
C1171      C3570   1.416       .  A
C1171      C1172   1.402       .  A
C1171      C1178   1.512       .  S
C1172      C3573   1.397       .  A
C1172      H1177   1.083       .  S
C1173      C3572   1.398       .  A
C1173      C1174   1.419   1_655  A
C1174      C1175   1.522       .  S
C1175      F1179   1.385       .  S
C1175      F1180   1.383       .  S
C1175      F1181   1.380       .  S
C1178      F1182   1.384       .  S
C1178      F1183   1.382       .  S
C1178      F1184   1.382       .  S
C1185      C3586   1.405       .  A
C1185      C1190   1.410       .  A
C1185      H1192   1.084       .  S
C1186      C3585   1.404   1_455  A
C1186      C1187   1.421       .  A
C1187      C1188   1.406       .  A
C1187      C1194   1.519       .  S
C1188      C1189   1.401   1_455  A
C1188      H1193   1.084       .  S
C1189      C3590   1.419       .  A
C1190      C3589   1.418       .  A
C1190      C1191   1.520       .  S
C1191      F1195   1.384       .  S
C1191      F1196   1.382       .  S
C1191      F1197   1.382       .  S
C1194      F1198   1.384       .  S
C1194      F1199   1.383       .  S
C1194      F1200   1.385       .  S
O1201      C1212   1.290       .  A
O1201     Eu1237   2.458       .  S
O1202      C1213   1.291       .  A
O1202     Eu1236   2.462   1_455  S
O1203      C1214   1.296       .  A
O1203     Eu1209   2.475       .  S
O1204      C1215   1.288       .  A
O1204     Eu3609   2.457       .  S
O1205      C1215   1.294       .  A
O1205     Eu1239   2.466       .  S
O1206      C1214   1.286       .  A
O1206     Eu1238   2.447   1_554  S
O1207      C1213   1.295       .  A
O1207     Eu1809   2.482       .  S
O1208      C1212   1.294       .  A
O1208     Eu1209   2.475       .  S
Eu1209     O3604   2.459   1_455  S
Eu1209     O1807   2.471   1_554  S
Eu1209     O3619   2.354   1_455  S
Eu1209     O1211   2.347       .  S
Eu1209     O4210   2.360   1_454  S
Eu1209     O1817   2.355   1_554  S
O1210     Eu4209   2.358       .  S
O1210     Eu1839   2.349       .  S
O1210     Eu3636   2.354       .  S
O1211     Eu1237   2.350       .  S
O1211     Eu1238   2.351   1_554  S
C1212      C1789   1.484       .  S
C1213      C1741   1.483       .  S
C1214      C1661   1.500       .  S
C1215      C1629   1.501       .  S
H1216      O1217   0.965       .  S
O1217     Eu1809   2.353       .  S
O1217     Eu1838   2.357       .  S
O1217     Eu1236   2.367   1_455  S
H1218      O1219   0.966       .  S
O1219     Eu3609   2.348       .  S
O1219     Eu3637   2.355       .  S
O1219     Eu1239   2.346       .  S
O1220      C1243   1.291       .  A
O1221      C1244   1.289       .  A
O1222      C1245   1.286       .  A
O1222     Eu1838   2.442       .  S
O1223      C1246   1.286       .  A
O1223     Eu1839   2.440       .  S
O1224      C1247   1.287       .  A
O1224     Eu1239   2.451       .  S
O1225      C1248   1.292       .  A
O1225     Eu1238   2.467   1_554  S
O1226      C1249   1.291       .  A
O1226     Eu1240   2.471   1_455  S
O1227      C1250   1.292       .  A
O1227     Eu3640   2.455   1_554  S
O1228      C1249   1.293       .  A
O1229      C1250   1.289       .  A
O1230      C1245   1.293       .  A
O1230     Eu1236   2.462   1_455  S
O1231      C1248   1.293       .  A
O1231     Eu1237   2.476       .  S
O1232      C1247   1.294       .  A
O1232     Eu3637   2.469       .  S
O1233      C1246   1.297       .  A
O1233     Eu3636   2.488       .  S
O1234      C1243   1.292   1_455  A
O1234     Eu1840   2.469   1_455  S
O1235      C1244   1.292       .  A
O1235     Eu1240   2.461   1_554  S
Eu1236     O3633   2.482       .  S
Eu1236     O3610   2.349       .  S
Eu1236     O2454   2.354       .  S
Eu1237     O3632   2.483   1_455  S
Eu1237     O3619   2.349   1_455  S
Eu1237     O2441   2.356   1_455  S
Eu1238     O1822   2.453       .  S
Eu1238     O1817   2.362       .  S
Eu1239     O1823   2.450   1_554  S
Eu1239     O1810   2.350   1_554  S
Eu1240     O3627   2.464   1_556  S
Eu1240     O1834   2.469       .  S
Eu1240     O3641   2.357   1_556  S
Eu1240     O1252   2.357   1_656  S
Eu1240     O4254   2.359       .  S
Eu1240     O1842   2.348   1_655  S
O1241     Eu2437   2.356       .  S
O1241     Eu3640   2.356   1_554  S
O1242     Eu1840   2.349   1_455  S
C1243      C1754   1.478       .  S
C1244      C1770   1.479       .  S
C1245      C1690   1.482       .  S
C1246      C1677   1.492       .  S
C1247      C1722   1.498       .  S
C1248      C1706   1.481       .  S
C1249      C1642   1.497       .  S
C1250      C1613   1.492       .  S
H1251      O1252   0.966       .  S
H1253      O1254   0.966       .  S
O1254     Eu2436   2.358   1_565  S
O1254     Eu4240   2.360       .  S
O1255      C1266   1.290       .  A
O1255     Eu1291   2.459       .  S
O1256      C1267   1.294       .  A
O1256     Eu1290   2.482       .  S
O1257      C1268   1.293       .  A
O1257     Eu1263   2.474       .  S
O1258      C1269   1.294       .  A
O1258     Eu3663   2.472       .  S
O1259      C1269   1.287       .  A
O1259     Eu1293   2.440       .  S
O1260      C1268   1.292       .  A
O1260     Eu1292   2.467       .  S
O1261      C1267   1.288       .  A
O1261     Eu1263   2.444   1_655  S
O1262      C1266   1.292       .  A
O1262     Eu1263   2.467       .  S
Eu1263     O3658   2.482   1_455  S
Eu1263     O3673   2.352   1_455  S
Eu1263     O1265   2.352       .  S
Eu1263     O3664   2.353   1_455  S
Eu1263     O1271   2.365       .  S
O1264     Eu3663   2.355       .  S
O1264     Eu1293   2.350       .  S
O1264     Eu3690   2.351       .  S
O1265     Eu1291   2.349       .  S
O1265     Eu1292   2.360       .  S
C1266      C1786   1.483       .  S
C1267      C1738   1.477       .  S
C1268      C1514   1.483       .  S
C1269      C1482   1.483       .  S
H1270      O1271   0.966       .  S
O1271     Eu1292   2.352       .  S
O1271     Eu1290   2.348   1_455  S
H1272      O1273   0.967       .  S
O1273     Eu3663   2.356       .  S
O1273     Eu3691   2.355       .  S
O1273     Eu1293   2.364       .  S
O1274      C1297   1.292       .  A
O1274     Eu1290   2.469       .  S
O1275      C1298   1.289       .  A
O1275     Eu1291   2.452       .  S
O1276      C1299   1.293       .  A
O1276     Eu1292   2.461       .  S
O1277      C1300   1.294       .  A
O1277     Eu1293   2.470       .  S
O1278      C1301   1.293       .  A
O1278     Eu1293   2.466       .  S
O1279      C1302   1.287       .  A
O1279     Eu1292   2.446       .  S
O1280      C1303   1.288       .  A
O1280     Eu1294   2.446   1_455  S
O1281      C1304   1.293       .  A
O1281     Eu3694   2.467       .  S
O1282      C1303   1.294       .  A
O1282     Eu1292   2.473       .  S
O1283      C1304   1.290       .  A
O1283     Eu1293   2.460       .  S
O1284      C1299   1.286       .  A
O1284     Eu1290   2.447   1_455  S
O1285      C1302   1.293       .  A
O1285     Eu1291   2.461       .  S
O1286      C1301   1.291       .  A
O1286     Eu3691   2.464       .  S
O1287      C1300   1.282       .  A
O1287     Eu3690   2.427       .  S
O1288      C1297   1.292       .  A
O1288     Eu1294   2.465       .  S
O1289      C1298   1.294       .  A
O1289     Eu1294   2.470   1_455  S
Eu1290     O3687   2.429       .  S
Eu1290     O3664   2.350       .  S
Eu1290     O3708   2.362       .  S
Eu1290     O1296   2.349   1_655  S
Eu1291     O3686   2.472   1_455  S
Eu1291     O3673   2.349   1_455  S
Eu1291     O3695   2.357   1_455  S
Eu1291     O1306   2.356       .  S
Eu1292     O1306   2.354       .  S
Eu1292     O1296   2.346       .  S
Eu1293     O1295   2.348       .  S
Eu1293     O1308   2.346       .  S
Eu1294     O3681   2.462       .  S
Eu1294     O3695   2.350       .  S
Eu1294     O1306   2.353   1_655  S
Eu1294     O3708   2.356       .  S
Eu1294     O1296   2.360   1_655  S
O1295     Eu3691   2.358       .  S
O1295     Eu3694   2.349       .  S
C1297      C1757   1.477       .  S
C1298      C1773   1.481       .  S
C1299      C1581   1.502       .  S
C1300      C1594   1.498       .  S
C1301      C1546   1.487       .  S
C1302      C1562   1.495       .  S
C1303      C1530   1.485       .  S
C1304      C1498   1.491       .  S
H1305      O1306   0.964       .  S
H1307      O1308   0.966       .  S
O1308     Eu3690   2.347       .  S
O1308     Eu3694   2.345       .  S
O1309      C1320   1.286   1_545  A
O1309     Eu1345   2.447       .  S
O1310      C1321   1.294       .  A
O1310     Eu1344   2.481       .  S
O1311      C1322   1.289       .  A
O1311     Eu1317   2.453       .  S
O1312      C1323   1.292       .  A
O1313      C1323   1.290       .  A
O1313     Eu1347   2.458       .  S
O1314      C1322   1.292       .  A
O1314     Eu1346   2.463       .  S
O1315      C1321   1.293       .  A
O1315     Eu1317   2.476       .  S
O1316      C1320   1.292       .  A
O1316     Eu1317   2.461       .  S
Eu1317     O1319   2.360       .  S
Eu1317     O1325   2.355       .  S
O1318     Eu1347   2.365       .  S
O1319     Eu1345   2.350   1_565  S
O1319     Eu1346   2.352       .  S
C1322      C1434   1.476       .  S
C1323      C1418   1.472       .  S
H1324      O1325   0.965       .  S
O1325     Eu1346   2.362       .  S
O1325     Eu1344   2.353       .  S
H1326      O1327   0.965       .  S
O1327     Eu1347   2.362       .  S
O1328      C1351   1.289       .  A
O1328     Eu1344   2.454       .  S
O1329      C1352   1.290       .  A
O1329     Eu1345   2.458       .  S
O1330      C1353   1.291       .  A
O1330     Eu1346   2.465       .  S
O1331      C1354   1.292       .  A
O1331     Eu1347   2.464       .  S
O1332      C1355   1.294       .  A
O1332     Eu1347   2.473       .  S
O1333      C1356   1.294       .  A
O1333     Eu1346   2.473       .  S
O1334      C1357   1.290       .  A
O1334     Eu1348   2.455   1_565  S
O1335      C1358   1.291       .  A
O1336      C1357   1.291       .  A
O1336     Eu1346   2.463       .  S
O1337      C1358   1.294       .  A
O1337     Eu1347   2.478       .  S
O1338      C1353   1.292       .  A
O1338     Eu1344   2.457       .  S
O1339      C1356   1.288       .  A
O1339     Eu1345   2.454   1_565  S
O1340      C1355   1.287       .  A
O1341      C1354   1.292       .  A
O1342      C1351   1.293   1_545  A
O1342     Eu1348   2.467       .  S
O1343      C1352   1.296       .  A
O1343     Eu1348   2.484       .  S
Eu1344     O1350   2.358       .  S
Eu1345     O1360   2.349   1_545  S
Eu1346     O1360   2.357       .  S
Eu1346     O1350   2.351       .  S
Eu1347     O1349   2.349       .  S
Eu1347     O1362   2.352       .  S
Eu1348     O1360   2.354   1_545  S
Eu1348     O1350   2.356   1_545  S
C1353      C1533   1.486       .  S
C1354      C1517   1.480       .  S
C1355      C1485   1.487       .  S
C1356      C1501   1.492       .  S
C1357      C1450   1.474       .  S
C1358      C1466   1.481       .  S
H1359      O1360   0.968       .  S
H1361      O1362   0.966       .  S
O1363      C1374   1.289       .  A
O1363     Eu1399   2.438       .  S
O1364      C1375   1.291       .  A
O1364     Eu1398   2.466       .  S
O1365      C1376   1.285       .  A
O1365     Eu1971   2.437       .  S
O1366      C1377   1.292       .  A
O1366     Eu1371   2.458       .  S
O1367      C1377   1.284       .  A
O1367     Eu1401   2.439       .  S
O1368      C1376   1.293       .  A
O1368     Eu1400   2.459       .  S
O1369      C1375   1.295       .  A
O1369     Eu1371   2.478       .  S
O1370      C1374   1.293       .  A
O1370     Eu1371   2.477       .  S
Eu1371     O1965   2.429       .  S
Eu1371     O1381   2.347       .  S
Eu1371     O1973   2.349       .  S
Eu1371     O1372   2.342       .  S
Eu1371     O1979   2.361       .  S
O1372     Eu1401   2.346       .  S
O1372     Eu1398   2.355       .  S
O1373     Eu1971   2.354       .  S
O1373     Eu1999   2.348       .  S
O1373     Eu1400   2.349       .  S
C1374      C2258   1.494       .  S
C1375      C2245   1.494       .  S
C1376      C1565   1.495       .  S
C1377      C1578   1.498       .  S
H1378      O1379   0.964       .  S
O1379     Eu1971   2.357       .  S
O1379     Eu1400   2.353       .  S
O1379     Eu1998   2.350       .  S
H1380      O1381   0.965       .  S
O1381     Eu1399   2.357       .  S
O1381     Eu1401   2.342       .  S
O1382      C1405   1.295       .  A
O1382     Eu1398   2.474       .  S
O1383      C1406   1.288       .  A
O1383     Eu1399   2.454       .  S
O1384      C1407   1.286       .  A
O1384     Eu1400   2.440       .  S
O1385      C1408   1.293       .  A
O1385     Eu1401   2.473       .  S
O1386      C1409   1.293       .  A
O1386     Eu1401   2.479       .  S
O1387      C1410   1.290       .  A
O1387     Eu1400   2.459       .  S
O1388      C1411   1.294       .  A
O1388     Eu2002   2.475       .  S
O1389      C1412   1.294       .  A
O1389     Eu1402   2.467       .  S
O1390      C1411   1.291       .  A
O1390     Eu1400   2.461       .  S
O1391      C1412   1.282       .  A
O1391     Eu1401   2.427       .  S
O1392      C1407   1.293       .  A
O1392     Eu1998   2.470       .  S
O1393      C1410   1.290       .  A
O1393     Eu1999   2.463       .  S
O1394      C1409   1.290       .  A
O1394     Eu1399   2.459       .  S
O1395      C1408   1.291       .  A
O1395     Eu1398   2.463       .  S
O1396      C1405   1.287       .  A
O1396     Eu1402   2.450       .  S
O1397      C1406   1.293       .  A
O1397     Eu1402   2.463       .  S
Eu1398     O1992   2.474       .  S
Eu1398     O1979   2.361       .  S
Eu1398     O1416   2.359       .  S
Eu1398     O2004   2.352       .  S
Eu1399     O1993   2.465       .  S
Eu1399     O1973   2.345       .  S
Eu1399     O1403   2.349       .  S
Eu1399     O2014   2.353       .  S
Eu1400     O1414   2.349       .  S
Eu1400     O1404   2.352       .  S
Eu1401     O1403   2.354       .  S
Eu1401     O1416   2.358       .  S
Eu1402     O1988   2.465       .  S
Eu1402     O1403   2.351       .  S
Eu1402     O2014   2.358       .  S
Eu1402     O1416   2.357       .  S
Eu1402     O2004   2.357       .  S
O1404     Eu1998   2.350       .  S
O1404     Eu2002   2.354       .  S
C1405      C2210   1.495       .  S
C1406      C2226   1.497       .  S
C1407      C1437   1.478       .  S
C1408      C1453   1.479       .  S
C1409      C1469   1.479       .  S
C1410      C1421   1.474       .  S
C1411      C1549   1.490       .  S
C1412      C1597   1.499       .  S
H1413      O1414   0.966       .  S
O1414     Eu1999   2.349       .  S
O1414     Eu2002   2.358       .  S
H1415      O1416   0.966       .  S
C1417      C1418   1.402       .  A
C1417      C1422   1.409       .  A
C1417      H1424   1.083       .  S
C1418      C1419   1.414       .  A
C1419      C1420   1.406       .  A
C1419      C1426   1.518       .  S
C1420      C1421   1.401       .  A
C1420      H1425   1.081       .  S
C1421      C1422   1.415       .  A
C1422      C1423   1.516       .  S
C1423      F1427   1.384       .  S
C1423      F1428   1.383       .  S
C1423      F1429   1.381       .  S
C1426      F1430   1.381       .  S
C1426      F1431   1.383       .  S
C1426      F1432   1.384       .  S
C1433      C1434   1.401       .  A
C1433      C1438   1.406       .  A
C1433      H1440   1.083       .  S
C1434      C1435   1.417       .  A
C1435      C1436   1.407       .  A
C1435      C1442   1.519       .  S
C1436      C1437   1.403       .  A
C1436      H1441   1.084       .  S
C1437      C1438   1.420       .  A
C1438      C1439   1.521       .  S
C1439      F1443   1.385       .  S
C1439      F1444   1.382       .  S
C1439      F1445   1.383       .  S
C1442      F1446   1.384       .  S
C1442      F1447   1.382       .  S
C1442      F1448   1.384       .  S
C1449      C1450   1.401       .  A
C1449      C1454   1.408       .  A
C1449      H1456   1.083       .  S
C1450      C1451   1.414       .  A
C1451      C1452   1.407       .  A
C1451      C1458   1.518       .  S
C1452      C1453   1.403       .  A
C1452      H1457   1.083       .  S
C1453      C1454   1.419       .  A
C1454      C1455   1.518       .  S
C1455      F1459   1.385       .  S
C1455      F1460   1.382       .  S
C1455      F1461   1.382       .  S
C1458      F1462   1.384       .  S
C1458      F1463   1.381       .  S
C1458      F1464   1.384       .  S
C1465      C1466   1.403       .  A
C1465      C1470   1.411       .  A
C1465      H1472   1.083       .  S
C1466      C1467   1.416       .  A
C1467      C1468   1.409       .  A
C1467      C1474   1.515       .  S
C1468      C1469   1.402       .  A
C1468      H1473   1.083       .  S
C1469      C1470   1.417       .  A
C1470      C1471   1.518       .  S
C1471      F1475   1.385       .  S
C1471      F1476   1.383       .  S
C1471      F1477   1.382       .  S
C1474      F1478   1.379       .  S
C1474      F1479   1.383       .  S
C1474      F1480   1.385       .  S
C1481      C1482   1.402       .  A
C1481      C1486   1.406       .  A
C1481      H1488   1.083       .  S
C1482      C1483   1.420       .  A
C1483      C1484   1.405       .  A
C1483      C1490   1.521       .  S
C1484      C1485   1.404       .  A
C1484      H1489   1.081       .  S
C1485      C1486   1.423       .  A
C1486      C1487   1.520       .  S
C1487      F1491   1.384       .  S
C1487      F1492   1.383       .  S
C1487      F1493   1.381       .  S
C1490      F1494   1.382       .  S
C1490      F1495   1.382       .  S
C1490      F1496   1.385       .  S
C1497      C1498   1.406       .  A
C1497      C1502   1.412       .  A
C1497      H1504   1.083       .  S
C1498      C1499   1.420       .  A
C1499      C1500   1.407       .  A
C1499      C1506   1.520       .  S
C1500      C1501   1.404       .  A
C1500      H1505   1.083       .  S
C1501      C1502   1.424       .  A
C1502      C1503   1.523       .  S
C1503      F1507   1.385       .  S
C1503      F1508   1.383       .  S
C1503      F1509   1.382       .  S
C1506      F1510   1.383       .  S
C1506      F1511   1.382       .  S
C1506      F1512   1.384       .  S
C1513      C1514   1.402       .  A
C1513      C1518   1.408       .  A
C1513      H1520   1.084       .  S
C1514      C1515   1.419       .  A
C1515      C1516   1.411       .  A
C1515      C1522   1.517       .  S
C1516      C1517   1.402       .  A
C1516      H1521   1.083       .  S
C1517      C1518   1.414       .  A
C1518      C1519   1.514       .  S
C1519      F1523   1.383       .  S
C1519      F1524   1.384       .  S
C1519      F1525   1.382       .  S
C1522      F1526   1.383       .  S
C1522      F1527   1.381       .  S
C1522      F1528   1.385       .  S
C1529      C1530   1.404       .  A
C1529      C1534   1.407       .  A
C1529      H1536   1.083       .  S
C1530      C1531   1.421       .  A
C1531      C1532   1.407       .  A
C1531      C1538   1.521       .  S
C1532      C1533   1.405       .  A
C1532      H1537   1.083       .  S
C1533      C1534   1.420       .  A
C1534      C1535   1.519       .  S
C1535      F1539   1.385       .  S
C1535      F1540   1.383       .  S
C1535      F1541   1.382       .  S
C1538      F1542   1.383       .  S
C1538      F1543   1.381       .  S
C1538      F1544   1.385       .  S
C1545      C1546   1.404       .  A
C1545      C1550   1.408       .  A
C1545      H1552   1.083       .  S
C1546      C1547   1.421       .  A
C1547      C1548   1.410       .  A
C1547      C1554   1.521       .  S
C1548      C1549   1.404       .  A
C1548      H1553   1.083       .  S
C1549      C1550   1.421       .  A
C1550      C1551   1.519       .  S
C1551      F1555   1.385       .  S
C1551      F1556   1.382       .  S
C1551      F1557   1.383       .  S
C1554      F1558   1.382       .  S
C1554      F1559   1.383       .  S
C1554      F1560   1.385       .  S
C1561      C1562   1.405       .  A
C1561      C1566   1.403       .  A
C1561      H1568   1.076       .  S
C1562      C1563   1.423       .  A
C1563      C1564   1.405       .  A
C1563      C1570   1.521       .  S
C1564      C1565   1.407       .  A
C1564      H1569   1.081       .  S
C1565      C1566   1.425       .  A
C1566      C1567   1.524       .  S
C1567      F1571   1.384       .  S
C1567      F1572   1.380       .  S
C1567      F1573   1.384       .  S
C1570      F1574   1.383       .  S
C1570      F1575   1.383       .  S
C1570      F1576   1.385       .  S
C1577      C1578   1.406       .  A
C1577      C1582   1.407       .  A
C1577      H1584   1.081       .  S
C1578      C1579   1.427       .  A
C1579      C1580   1.407       .  A
C1579      C1586   1.525       .  S
C1580      C1581   1.408       .  A
C1580      H1585   1.081       .  S
C1581      C1582   1.427       .  A
C1582      C1583   1.523       .  S
C1583      F1587   1.385       .  S
C1583      F1588   1.383       .  S
C1583      F1589   1.383       .  S
C1586      F1590   1.384       .  S
C1586      F1591   1.383       .  S
C1586      F1592   1.384       .  S
C1593      C1594   1.406       .  A
C1593      C1598   1.406       .  A
C1593      H1600   1.081       .  S
C1594      C1595   1.429       .  A
C1595      C1596   1.404       .  A
C1595      C1602   1.527       .  S
C1596      C1597   1.406       .  A
C1596      H1601   1.081       .  S
C1597      C1598   1.429       .  A
C1598      C1599   1.526       .  S
C1599      F1603   1.385       .  S
C1599      F1604   1.384       .  S
C1599      F1605   1.384       .  S
C1602      F1606   1.384       .  S
C1602      F1607   1.382       .  S
C1602      F1608   1.385       .  S
C1609      C1610   1.405       .  A
C1609      C1614   1.409       .  A
C1609      H1616   1.083       .  S
C1610      C2005   1.486       .  S
C1610      C2211   1.418   1_554  A
C1611      C2210   1.425       .  A
C1611      C1612   1.406       .  A
C1611      C1618   1.523       .  S
C1612      C2213   1.405       .  A
C1612      H1617   1.082       .  S
C1613      C2212   1.406   1_554  A
C1613      C1614   1.424       .  A
C1614      C1615   1.521       .  S
C1615      F1619   1.384       .  S
C1615      F2220   1.381       .  S
C1615      F1621   1.383       .  S
C1618      F1622   1.382       .  S
C1618      F2223   1.382       .  S
C1618      F1624   1.386       .  S
F1620      C2215   1.381       .  S
F1623      C2218   1.382       .  S
C1625      C1626   1.407       .  A
C1625      C1630   1.410       .  A
C1625      H1632   1.082       .  S
C1626      C2006   1.498       .  S
C1626      C2227   1.423   1_554  A
C1627      C2226   1.425       .  A
C1627      C1628   1.407       .  A
C1627      C1634   1.522       .  S
C1628      C2229   1.406       .  A
C1628      H1633   1.082       .  S
C1629      C2228   1.408   1_554  A
C1629      C1630   1.427       .  A
C1630      C1631   1.523       .  S
C1631      F1635   1.385       .  S
C1631      F2236   1.383   1_554  S
C1631      F1637   1.381       .  S
C1634      F1638   1.382       .  S
C1634      F2239   1.383       .  S
C1634      F1640   1.385       .  S
F1636      C2231   1.383       .  S
F1639      C2234   1.383   1_554  S
C1641      C2242   1.405       .  A
C1641      C1646   1.410       .  A
C1641      H1648   1.083       .  S
C1642      C2241   1.406   1_556  A
C1642      C1643   1.423       .  A
C1643      C1644   1.411       .  A
C1643      C1650   1.520       .  S
C1644      C1645   1.407       .  A
C1644      H1649   1.083       .  S
C1645      C1975   1.496       .  S
C1645      C2246   1.424   1_556  A
C1646      C2245   1.422       .  A
C1646      C1647   1.518       .  S
C1647      F1651   1.385       .  S
C1647      F1652   1.382       .  S
C1647      F1653   1.381       .  S
C1650      F1654   1.383       .  S
C1650      F1655   1.382       .  S
C1650      F1656   1.384       .  S
C1657      C1658   1.410       .  A
C1657      C1662   1.412       .  A
C1657      H1664   1.082       .  S
C1658      C1974   1.498       .  S
C1658      C2259   1.421   1_554  A
C1659      C2258   1.417       .  A
C1659      C1660   1.405       .  A
C1659      C1666   1.521       .  S
C1660      C2261   1.408       .  A
C1660      H1665   1.077       .  S
C1661      C2260   1.404   1_554  A
C1661      C1662   1.427       .  A
C1662      C1663   1.524       .  S
C1663      F2267   1.385       .  S
C1663      F2268   1.382       .  S
C1663      F1669   1.379       .  S
C1666      F1670   1.384       .  S
C1666      F2271   1.380       .  S
C1666      F2272   1.384       .  S
F1667      C2263   1.386       .  S
F1668      C2263   1.383       .  S
F1671      C2266   1.379       .  S
F1672      C2266   1.383       .  S
C1673      C1678   1.411       .  A
C1673      H1680   1.083       .  S
C1674      C1675   1.423       .  A
C1675      C1676   1.409       .  A
C1675      C1682   1.521       .  S
C1676      C1677   1.403       .  A
C1676      H1681   1.083       .  S
C1678      C1679   1.521       .  S
C1679      F1685   1.383       .  S
C1682      F1686   1.382       .  S
C1689      C1690   1.403       .  A
C1689      C1694   1.405       .  A
C1689      H1696   1.083       .  S
C1691      C1692   1.408       .  A
C1691      C1698   1.522       .  S
C1692      H1697   1.083       .  S
C1693      C1694   1.421       .  A
C1694      C1695   1.520       .  S
C1695      F1699   1.385       .  S
C1695      F1700   1.383       .  S
C1695      F1701   1.383       .  S
C1698      F1702   1.383       .  S
C1698      F1703   1.383       .  S
C1698      F1704   1.384       .  S
C1705      C1710   1.416       .  A
C1705      H1712   1.083       .  S
C1706      C1707   1.420       .  A
C1707      C1708   1.409       .  A
C1707      C1714   1.522       .  S
C1708      C1709   1.402       .  A
C1708      H1713   1.080       .  S
C1710      C1711   1.517       .  S
C1711      F1715   1.385       .  S
C1711      F1717   1.383       .  S
C1714      F1718   1.381       .  S
C1714      F1720   1.385       .  S
C1721      C1726   1.407       .  A
C1721      H1728   1.073       .  S
C1722      C1723   1.425       .  A
C1723      C1724   1.409       .  A
C1723      C1730   1.524       .  S
C1724      C1725   1.407       .  A
C1724      H1729   1.081       .  S
C1726      C1727   1.525       .  S
C1727      F1731   1.380       .  S
C1727      F1732   1.384       .  S
C1730      F1735   1.384       .  S
C1730      F1736   1.385       .  S
C1737      C1738   1.400   1_455  A
C1737      C1742   1.407       .  A
C1737      H1744   1.083       .  S
C1738      C4139   1.418       .  A
C1739      C4138   1.414       .  A
C1739      C1740   1.407       .  A
C1739      C1746   1.517       .  S
C1740      C4141   1.402       .  A
C1740      H1745   1.084       .  S
C1741      C4140   1.404   1_455  A
C1741      C1742   1.417       .  A
C1742      C1743   1.514       .  S
C1743      F1747   1.385       .  S
C1743      F1748   1.383       .  S
C1743      F1749   1.375       .  S
C1746      F1750   1.383       .  S
C1746      F1751   1.381       .  S
C1746      F1752   1.385       .  S
C1753      C1754   1.403   1_455  A
C1753      C1758   1.409       .  A
C1753      H1760   1.081       .  S
C1754      C4155   1.415       .  A
C1755      C4154   1.417       .  A
C1755      C1756   1.411       .  A
C1755      C1762   1.517       .  S
C1756      C4157   1.402       .  A
C1756      H1761   1.083       .  S
C1757      C4156   1.403       .  A
C1757      C1758   1.415   1_655  A
C1758      C1759   1.518       .  S
C1759      F1763   1.384       .  S
C1759      F1764   1.383       .  S
C1759      F1765   1.383       .  S
C1762      F1766   1.383       .  S
C1762      F1767   1.382       .  S
C1762      F1768   1.385       .  S
C1769      C1770   1.401   1_455  A
C1769      C1774   1.408       .  A
C1769      H1776   1.084       .  S
C1770      C4171   1.417       .  A
C1771      C4170   1.417       .  A
C1771      C1772   1.405       .  A
C1771      C1778   1.507       .  S
C1772      C4173   1.398       .  A
C1772      H1777   1.084       .  S
C1773      C4172   1.398   1_455  A
C1773      C1774   1.419       .  A
C1774      C1775   1.512       .  S
C1775      F1779   1.386       .  S
C1775      F1780   1.380       .  S
C1775      F1781   1.383       .  S
C1778      F1782   1.384       .  S
C1778      F1783   1.381       .  S
C1778      F1784   1.384       .  S
C1785      C4186   1.403       .  A
C1785      C1790   1.409       .  A
C1785      H1792   1.083       .  S
C1786      C4185   1.404   1_455  A
C1786      C1787   1.419       .  A
C1787      C1788   1.409       .  A
C1787      C1794   1.520       .  S
C1788      C1789   1.403       .  A
C1788      H1793   1.083       .  S
C1789      C4190   1.420   1_455  A
C1790      C4189   1.417       .  A
C1790      C1791   1.519       .  S
C1791      F1795   1.384       .  S
C1791      F1796   1.381       .  S
C1791      F1797   1.382       .  S
C1794      F1798   1.384       .  S
C1794      F1799   1.382       .  S
C1794      F1800   1.384       .  S
O1801      C1812   1.290       .  A
O1801     Eu1837   2.455       .  S
O1802      C1813   1.291       .  A
O1802     Eu1836   2.460       .  S
O1803      C1814   1.295       .  A
O1803     Eu1809   2.473       .  S
O1804      C1815   1.288       .  A
O1804     Eu4209   2.455       .  S
O1805      C1815   1.292       .  A
O1805     Eu1839   2.458       .  S
O1806      C1814   1.289       .  A
O1806     Eu1838   2.459       .  S
O1807      C1813   1.293   1_455  A
O1808      C1812   1.295       .  A
O1808     Eu1809   2.480       .  S
Eu1809     O4204   2.468   1_455  S
Eu1809     O4219   2.357   1_455  S
Eu1809     O1811   2.355       .  S
Eu1809     O3610   2.359   1_455  S
O1810     Eu3609   2.354   1_556  S
O1810     Eu4236   2.355       .  S
O1811     Eu1837   2.358       .  S
O1811     Eu1838   2.350       .  S
C1812      C2389   1.482       .  S
C1813      C2341   1.484       .  S
C1814      C2261   1.501       .  S
C1815      C2229   1.494       .  S
H1816      O1817   0.966       .  S
O1817     Eu1836   2.365   1_455  S
H1818      O1819   0.966       .  S
O1819     Eu4209   2.350       .  S
O1819     Eu4237   2.345       .  S
O1819     Eu1839   2.346       .  S
O1820      C1843   1.291       .  A
O1821      C1844   1.291   1_655  A
O1822      C1845   1.290       .  A
O1823      C1846   1.287       .  A
O1824      C1847   1.285       .  A
O1824     Eu1839   2.441       .  S
O1825      C1848   1.290       .  A
O1825     Eu1838   2.457       .  S
O1826      C1849   1.291       .  A
O1826     Eu1840   2.465   1_455  S
O1827      C1850   1.293       .  A
O1827     Eu4240   2.459       .  S
O1828      C1849   1.293       .  A
O1829      C1850   1.288       .  A
O1830      C1845   1.292       .  A
O1830     Eu1836   2.463   1_455  S
O1831      C1848   1.292       .  A
O1831     Eu1837   2.466       .  S
O1832      C1847   1.297       .  A
O1832     Eu4237   2.488       .  S
O1833      C1846   1.297       .  A
O1833     Eu4236   2.487       .  S
O1834      C1843   1.292       .  A
O1835      C1844   1.290       .  A
O1835     Eu1840   2.454   1_455  S
Eu1836     O4233   2.480       .  S
Eu1836     O4210   2.349       .  S
Eu1836     O3054   2.357       .  S
Eu1837     O4232   2.482   1_455  S
Eu1837     O4219   2.354   1_455  S
Eu1837     O3041   2.347   1_455  S
Eu1840     O4227   2.464       .  S
Eu1840     O4241   2.358       .  S
Eu1840     O1852   2.351   1_655  S
Eu1840     O3654   2.353       .  S
O1841     Eu3037   2.352       .  S
O1841     Eu4240   2.360       .  S
C1843      C2354   1.482       .  S
C1844      C2370   1.481       .  S
C1845      C2290   1.475       .  S
C1846      C2277   1.498       .  S
C1847      C2322   1.497       .  S
C1848      C2306   1.474       .  S
C1849      C2242   1.492       .  S
C1850      C2213   1.493       .  S
H1851      O1852   0.966       .  S
H1853      O1854   0.966       .  S
O1854     Eu3036   2.365   1_565  S
O1854     Eu3640   2.364       .  S
O1855      C1866   1.290       .  A
O1855     Eu1891   2.457       .  S
O1856      C1867   1.295       .  A
O1856     Eu1890   2.483       .  S
O1857      C1868   1.295       .  A
O1857     Eu1863   2.475   1_455  S
O1858      C1869   1.296       .  A
O1858     Eu4263   2.481       .  S
O1859      C1869   1.284       .  A
O1859     Eu1893   2.433       .  S
O1860      C1868   1.293       .  A
O1860     Eu1892   2.475       .  S
O1861      C1867   1.288       .  A
O1861     Eu1863   2.447       .  S
O1862      C1866   1.291       .  A
O1862     Eu1863   2.463   1_455  S
Eu1863     O4258   2.489       .  S
Eu1863     O4273   2.352       .  S
Eu1863     O1865   2.352   1_655  S
Eu1863     O4264   2.354       .  S
Eu1863     O1871   2.367   1_655  S
O1864     Eu4263   2.354       .  S
O1864     Eu1893   2.349       .  S
O1864     Eu4290   2.350       .  S
O1865     Eu1891   2.347       .  S
O1865     Eu1892   2.363       .  S
C1866      C2386   1.478       .  S
C1867      C2338   1.480       .  S
C1868      C2114   1.491       .  S
C1869      C2082   1.499       .  S
H1870      O1871   0.966       .  S
O1871     Eu1892   2.352       .  S
O1871     Eu1890   2.343   1_455  S
H1872      O1873   0.966       .  S
O1873     Eu4263   2.351       .  S
O1873     Eu4291   2.346       .  S
O1873     Eu1893   2.360       .  S
O1874      C1897   1.293       .  A
O1874     Eu1890   2.468       .  S
O1875      C1898   1.286       .  A
O1875     Eu1891   2.440       .  S
O1876      C1899   1.291       .  A
O1876     Eu1892   2.453       .  S
O1877      C1900   1.296       .  A
O1877     Eu1893   2.479       .  S
O1878      C1901   1.293       .  A
O1878     Eu1893   2.463       .  S
O1879      C1902   1.283       .  A
O1879     Eu1892   2.429       .  S
O1880      C1903   1.289       .  A
O1880     Eu1894   2.452   1_455  S
O1881      C1904   1.296       .  A
O1881     Eu4294   2.483       .  S
O1882      C1903   1.295       .  A
O1882     Eu1892   2.482       .  S
O1883      C1904   1.291       .  A
O1883     Eu1893   2.464       .  S
O1884      C1899   1.286       .  A
O1884     Eu1890   2.450   1_455  S
O1885      C1902   1.294       .  A
O1885     Eu1891   2.463       .  S
O1886      C1901   1.289       .  A
O1886     Eu4291   2.453       .  S
O1887      C1900   1.283       .  A
O1887     Eu4290   2.426       .  S
O1888      C1897   1.291       .  A
O1888     Eu1894   2.459       .  S
O1889      C1898   1.295       .  A
O1889     Eu1894   2.472   1_455  S
Eu1890     O4287   2.425       .  S
Eu1890     O4264   2.352       .  S
Eu1890     O4308   2.364       .  S
Eu1890     O1896   2.349   1_655  S
Eu1891     O4286   2.474   1_455  S
Eu1891     O4273   2.347   1_455  S
Eu1891     O4295   2.357   1_455  S
Eu1891     O1906   2.355       .  S
Eu1892     O1906   2.357       .  S
Eu1892     O1896   2.343       .  S
Eu1893     O1895   2.347       .  S
Eu1893     O1908   2.349       .  S
Eu1894     O4281   2.476       .  S
Eu1894     O4295   2.346       .  S
Eu1894     O1906   2.356   1_655  S
Eu1894     O4308   2.356       .  S
Eu1894     O1896   2.362   1_655  S
O1895     Eu4291   2.359       .  S
O1895     Eu4294   2.349       .  S
C1897      C2357   1.478       .  S
C1898      C2373   1.482       .  S
C1899      C2181   1.502       .  S
C1900      C2194   1.488       .  S
C1901      C2146   1.484       .  S
C1902      C2162   1.494       .  S
C1903      C2130   1.485       .  S
C1904      C2098   1.500       .  S
H1905      O1906   0.964       .  S
H1907      O1908   0.966       .  S
O1908     Eu4290   2.360       .  S
O1908     Eu4294   2.356       .  S
O1909      C1920   1.287       .  A
O1909     Eu1945   2.451       .  S
O1910      C1921   1.293   1_545  A
O1910     Eu1944   2.475       .  S
O1911      C1922   1.293       .  A
O1911     Eu1917   2.467   1_565  S
O1912      C1923   1.291       .  A
O1913      C1923   1.290       .  A
O1913     Eu1947   2.456       .  S
O1914      C1922   1.291       .  A
O1914     Eu1946   2.453       .  S
O1915      C1921   1.294       .  A
O1915     Eu1917   2.478   1_565  S
O1916      C1920   1.295       .  A
O1916     Eu1917   2.475       .  S
Eu1917     O1919   2.358   1_545  S
Eu1917     O1925   2.357   1_545  S
O1918     Eu1947   2.362       .  S
O1919     Eu1945   2.343   1_565  S
O1919     Eu1946   2.354       .  S
C1922      C2034   1.476       .  S
C1923      C2018   1.471       .  S
H1924      O1925   0.965       .  S
O1925     Eu1946   2.365       .  S
O1925     Eu1944   2.350   1_565  S
H1926      O1927   0.964       .  S
O1927     Eu1947   2.356       .  S
O1928      C1951   1.289       .  A
O1928     Eu1944   2.454   1_565  S
O1929      C1952   1.288       .  A
O1929     Eu1945   2.457       .  S
O1930      C1953   1.293       .  A
O1930     Eu1946   2.473       .  S
O1931      C1954   1.293       .  A
O1931     Eu1947   2.474       .  S
O1932      C1955   1.296       .  A
O1932     Eu1947   2.482       .  S
O1933      C1956   1.295       .  A
O1933     Eu1946   2.480       .  S
O1934      C1957   1.292       .  A
O1934     Eu1948   2.468   1_565  S
O1935      C1958   1.294       .  A
O1936      C1957   1.294       .  A
O1936     Eu1946   2.480       .  S
O1937      C1958   1.291       .  A
O1937     Eu1947   2.462       .  S
O1938      C1953   1.289       .  A
O1938     Eu1944   2.449   1_565  S
O1939      C1956   1.289       .  A
O1939     Eu1945   2.456   1_565  S
O1940      C1955   1.285       .  A
O1941      C1954   1.292       .  A
O1942      C1951   1.292       .  A
O1942     Eu1948   2.465   1_565  S
O1943      C1952   1.295       .  A
O1943     Eu1948   2.477       .  S
Eu1944     O1950   2.357   1_545  S
Eu1945     O1960   2.354   1_545  S
Eu1946     O1960   2.355       .  S
Eu1946     O1950   2.347       .  S
Eu1947     O1949   2.352       .  S
Eu1947     O1962   2.353       .  S
Eu1948     O1960   2.359   1_545  S
Eu1948     O1950   2.356   1_545  S
C1953      C2133   1.483       .  S
C1954      C2117   1.494       .  S
C1955      C2085   1.499       .  S
C1956      C2101   1.497       .  S
C1957      C2050   1.483       .  S
C1958      C2066   1.489       .  S
H1959      O1960   0.968       .  S
H1961      O1962   0.965       .  S
O1963      C1974   1.290       .  A
O1963     Eu1999   2.447       .  S
O1964      C1975   1.289   1_554  A
O1964     Eu1998   2.457       .  S
O1965      C1976   1.283       .  A
O1966      C1977   1.292       .  A
O1966     Eu1971   2.463   1_556  S
O1967      C1977   1.288       .  A
O1967     Eu2001   2.460       .  S
O1968      C1976   1.293       .  A
O1968     Eu2000   2.461       .  S
O1969      C1975   1.294       .  A
O1969     Eu1971   2.472   1_556  S
O1970      C1974   1.291       .  A
O1970     Eu1971   2.471       .  S
Eu1971     O1981   2.351   1_554  S
Eu1971     O1972   2.343   1_554  S
O1972     Eu2001   2.342       .  S
O1972     Eu1998   2.352   1_556  S
O1973     Eu2000   2.343       .  S
C1976      C2165   1.495       .  S
C1977      C2178   1.506       .  S
H1978      O1979   0.964       .  S
O1979     Eu2000   2.361       .  S
H1980      O1981   0.966       .  S
O1981     Eu1999   2.367   1_556  S
O1981     Eu2001   2.352       .  S
O1982      C2005   1.291       .  A
O1982     Eu1998   2.455       .  S
O1983      C2006   1.289       .  A
O1983     Eu1999   2.457       .  S
O1984      C2007   1.289       .  A
O1984     Eu2000   2.452       .  S
O1985      C2008   1.293       .  A
O1985     Eu2001   2.474       .  S
O1986      C2009   1.295       .  A
O1986     Eu2001   2.478       .  S
O1987      C2010   1.292       .  A
O1987     Eu2000   2.468       .  S
O1988      C2011   1.292       .  A
O1989      C2012   1.296       .  A
O1989     Eu2002   2.481   1_556  S
O1990      C2011   1.292       .  A
O1990     Eu2000   2.467       .  S
O1991      C2012   1.286       .  A
O1991     Eu2001   2.437       .  S
O1992      C2007   1.294       .  A
O1993      C2010   1.291       .  A
O1994      C2009   1.289       .  A
O1994     Eu1999   2.450   1_556  S
O1995      C2008   1.290       .  A
O1995     Eu1998   2.457   1_556  S
O1996      C2005   1.290       .  A
O1996     Eu2002   2.457       .  S
O1997      C2006   1.293       .  A
O1997     Eu2002   2.462       .  S
Eu1998     O2016   2.357   1_554  S
Eu1999     O2003   2.351   1_554  S
Eu2000     O2014   2.355       .  S
Eu2000     O2004   2.354       .  S
Eu2001     O2003   2.357       .  S
Eu2001     O2016   2.360       .  S
Eu2002     O2003   2.352   1_554  S
Eu2002     O2016   2.359   1_554  S
C2007      C2037   1.481       .  S
C2008      C2053   1.477       .  S
C2009      C2069   1.486       .  S
C2010      C2021   1.478       .  S
C2011      C2149   1.490       .  S
C2012      C2197   1.491       .  S
H2013      O2014   0.966       .  S
H2015      O2016   0.966       .  S
C2017      C2018   1.402       .  A
C2017      C2022   1.410       .  A
C2017      H2024   1.084       .  S
C2018      C2019   1.412       .  A
C2019      C2020   1.404       .  A
C2019      C2026   1.518       .  S
C2020      C2021   1.400       .  A
C2020      H2025   1.077       .  S
C2021      C2022   1.418       .  A
C2022      C2023   1.516       .  S
C2023      F2027   1.385       .  S
C2023      F2028   1.379       .  S
C2023      F2029   1.382       .  S
C2026      F2030   1.382       .  S
C2026      F2031   1.383       .  S
C2026      F2032   1.384       .  S
C2033      C2034   1.403       .  A
C2033      C2038   1.407       .  A
C2033      H2040   1.083       .  S
C2034      C2035   1.416       .  A
C2035      C2036   1.407       .  A
C2035      C2042   1.520       .  S
C2036      C2037   1.405       .  A
C2036      H2041   1.084       .  S
C2037      C2038   1.421       .  A
C2038      C2039   1.522       .  S
C2039      F2043   1.385       .  S
C2039      F2044   1.382       .  S
C2039      F2045   1.382       .  S
C2042      F2046   1.384       .  S
C2042      F2047   1.382       .  S
C2042      F2048   1.384       .  S
C2049      C2050   1.406       .  A
C2049      C2054   1.412       .  A
C2049      H2056   1.081       .  S
C2050      C2051   1.416       .  A
C2051      C2052   1.408       .  A
C2051      C2058   1.517       .  S
C2052      C2053   1.401       .  A
C2052      H2057   1.082       .  S
C2053      C2054   1.415       .  A
C2054      C2055   1.520       .  S
C2055      F2059   1.384       .  S
C2055      F2060   1.383       .  S
C2055      F2061   1.383       .  S
C2058      F2062   1.382       .  S
C2058      F2063   1.382       .  S
C2058      F2064   1.385       .  S
C2065      C2066   1.404       .  A
C2065      C2070   1.409       .  A
C2065      H2072   1.083       .  S
C2066      C2067   1.421       .  A
C2067      C2068   1.409       .  A
C2067      C2074   1.517       .  S
C2068      C2069   1.403       .  A
C2068      H2073   1.083       .  S
C2069      C2070   1.421       .  A
C2070      C2071   1.520       .  S
C2071      F2075   1.385       .  S
C2071      F2076   1.383       .  S
C2071      F2077   1.383       .  S
C2074      F2078   1.382       .  S
C2074      F2079   1.384       .  S
C2074      F2080   1.385       .  S
C2081      C2082   1.405       .  A
C2081      C2086   1.408       .  A
C2081      H2088   1.082       .  S
C2082      C2083   1.429       .  A
C2083      C2084   1.406       .  A
C2083      C2090   1.524       .  S
C2084      C2085   1.402       .  A
C2084      H2089   1.079       .  S
C2085      C2086   1.426       .  A
C2086      C2087   1.519       .  S
C2087      F2091   1.383       .  S
C2087      F2092   1.384       .  S
C2087      F2093   1.378       .  S
C2090      F2094   1.384       .  S
C2090      F2095   1.383       .  S
C2090      F2096   1.384       .  S
C2097      C2098   1.407       .  A
C2097      C2102   1.411       .  A
C2097      H2104   1.083       .  S
C2098      C2099   1.425       .  A
C2099      C2100   1.412       .  A
C2099      C2106   1.520       .  S
C2100      C2101   1.405       .  A
C2100      H2105   1.083       .  S
C2101      C2102   1.423       .  A
C2102      C2103   1.521       .  S
C2103      F2107   1.385       .  S
C2103      F2108   1.384       .  S
C2103      F2109   1.382       .  S
C2106      F2110   1.383       .  S
C2106      F2111   1.383       .  S
C2106      F2112   1.385       .  S
C2113      C2114   1.400       .  A
C2113      C2118   1.407       .  A
C2113      H2120   1.083       .  S
C2114      C2115   1.421       .  A
C2115      C2116   1.415       .  A
C2115      C2122   1.516       .  S
C2116      C2117   1.405       .  A
C2116      H2121   1.083       .  S
C2117      C2118   1.418       .  A
C2118      C2119   1.509       .  S
C2119      F2123   1.383       .  S
C2119      F2124   1.382       .  S
C2119      F2125   1.382       .  S
C2122      F2126   1.384       .  S
C2122      F2127   1.381       .  S
C2122      F2128   1.385       .  S
C2129      C2130   1.404       .  A
C2129      C2134   1.408       .  A
C2129      H2136   1.083       .  S
C2130      C2131   1.421       .  A
C2131      C2132   1.408       .  A
C2131      C2138   1.520       .  S
C2132      C2133   1.403       .  A
C2132      H2137   1.081       .  S
C2133      C2134   1.417       .  A
C2134      C2135   1.518       .  S
C2135      F2139   1.384       .  S
C2135      F2140   1.384       .  S
C2135      F2141   1.382       .  S
C2138      F2142   1.382       .  S
C2138      F2143   1.382       .  S
C2138      F2144   1.385       .  S
C2145      C2146   1.402       .  A
C2145      C2150   1.405       .  A
C2145      H2152   1.083       .  S
C2146      C2147   1.420       .  A
C2147      C2148   1.410       .  A
C2147      C2154   1.520       .  S
C2148      C2149   1.406       .  A
C2148      H2153   1.083       .  S
C2149      C2150   1.420       .  A
C2150      C2151   1.516       .  S
C2151      F2155   1.385       .  S
C2151      F2156   1.380       .  S
C2151      F2157   1.382       .  S
C2154      F2158   1.383       .  S
C2154      F2159   1.383       .  S
C2154      F2160   1.384       .  S
C2161      C2162   1.404       .  A
C2161      C2166   1.400       .  A
C2161      H2168   1.080       .  S
C2162      C2163   1.427       .  A
C2163      C2164   1.405       .  A
C2163      C2170   1.525       .  S
C2164      C2165   1.407       .  A
C2164      H2169   1.081       .  S
C2165      C2166   1.427       .  A
C2166      C2167   1.524       .  S
C2167      F2171   1.385       .  S
C2167      F2172   1.382       .  S
C2167      F2173   1.383       .  S
C2170      F2174   1.383       .  S
C2170      F2175   1.383       .  S
C2170      F2176   1.386       .  S
C2177      C2178   1.410       .  A
C2177      C2182   1.412       .  A
C2177      H2184   1.082       .  S
C2178      C2179   1.427       .  A
C2179      C2180   1.406       .  A
C2179      C2186   1.524       .  S
C2180      C2181   1.407       .  A
C2180      H2185   1.080       .  S
C2181      C2182   1.426       .  A
C2182      C2183   1.524       .  S
C2183      F2187   1.384       .  S
C2183      F2188   1.384       .  S
C2183      F2189   1.384       .  S
C2186      F2190   1.385       .  S
C2186      F2191   1.384       .  S
C2186      F2192   1.383       .  S
C2193      C2194   1.401       .  A
C2193      C2198   1.404       .  A
C2193      H2200   1.083       .  S
C2194      C2195   1.426       .  A
C2195      C2196   1.407       .  A
C2195      C2202   1.523       .  S
C2196      C2197   1.404       .  A
C2196      H2201   1.083       .  S
C2197      C2198   1.425       .  A
C2198      C2199   1.520       .  S
C2199      F2203   1.386       .  S
C2199      F2204   1.381       .  S
C2199      F2205   1.383       .  S
C2202      F2206   1.382       .  S
C2202      F2207   1.381       .  S
C2202      F2208   1.385       .  S
C2209      C2210   1.406       .  A
C2209      C2214   1.407       .  A
C2209      H2216   1.082       .  S
C2211      C2212   1.404       .  A
C2211      C2218   1.521       .  S
C2212      H2217   1.081       .  S
C2213      C2214   1.423       .  A
C2214      C2215   1.522       .  S
C2215      F2219   1.384       .  S
C2215      F2221   1.383       .  S
C2218      F2222   1.384       .  S
C2218      F2224   1.385       .  S
C2225      C2226   1.407       .  A
C2225      C2230   1.408       .  A
C2225      H2232   1.082       .  S
C2227      C2228   1.406       .  A
C2227      C2234   1.523       .  S
C2228      H2233   1.082       .  S
C2229      C2230   1.423       .  A
C2230      C2231   1.523       .  S
C2231      F2235   1.385       .  S
C2231      F2237   1.383       .  S
C2234      F2238   1.383       .  S
C2234      F2240   1.385       .  S
C2241      C2246   1.409       .  A
C2241      H2248   1.082       .  S
C2242      C2243   1.421       .  A
C2243      C2244   1.409       .  A
C2243      C2250   1.517       .  S
C2244      C2245   1.405       .  A
C2244      H2249   1.083       .  S
C2246      C2247   1.522       .  S
C2247      F2251   1.385       .  S
C2247      F2252   1.383       .  S
C2247      F2253   1.383       .  S
C2250      F2254   1.381       .  S
C2250      F2255   1.383       .  S
C2250      F2256   1.385       .  S
C2257      C2258   1.408       .  A
C2257      C2262   1.409       .  A
C2257      H2264   1.081       .  S
C2259      C2260   1.403       .  A
C2259      C2266   1.522       .  S
C2260      H2265   1.076       .  S
C2261      C2262   1.426       .  A
C2262      C2263   1.523       .  S
C2263      F2269   1.381       .  S
C2266      F2270   1.384       .  S
C2273      C2278   1.411       .  A
C2273      H2280   1.082       .  S
C2274      C2275   1.427       .  A
C2275      C2276   1.409       .  A
C2275      C2282   1.518       .  S
C2276      C2277   1.402       .  A
C2276      H2281   1.083       .  S
C2278      C2279   1.520       .  S
C2279      F2285   1.384       .  S
C2282      F2286   1.383       .  S
C2289      C2290   1.402       .  A
C2289      C2294   1.408       .  A
C2289      H2296   1.083       .  S
C2291      C2292   1.409       .  A
C2291      C2298   1.522       .  S
C2292      H2297   1.083       .  S
C2293      C2294   1.419       .  A
C2294      C2295   1.519       .  S
C2295      F2299   1.385       .  S
C2295      F2300   1.381       .  S
C2295      F2301   1.383       .  S
C2298      F2302   1.384       .  S
C2298      F2303   1.383       .  S
C2298      F2304   1.384       .  S
C2305      C2310   1.414       .  A
C2305      H2312   1.084       .  S
C2306      C2307   1.413       .  A
C2307      C2308   1.403       .  A
C2307      C2314   1.523       .  S
C2308      C2309   1.400       .  A
C2308      H2313   1.069       .  S
C2310      C2311   1.518       .  S
C2311      F2315   1.384       .  S
C2311      F2317   1.382       .  S
C2314      F2318   1.382       .  S
C2314      F2320   1.383       .  S
C2321      C2326   1.407       .  A
C2321      H2328   1.076       .  S
C2322      C2323   1.426       .  A
C2323      C2324   1.411       .  A
C2323      C2330   1.524       .  S
C2324      C2325   1.407       .  A
C2324      H2329   1.082       .  S
C2326      C2327   1.523       .  S
C2327      F2331   1.383       .  S
C2327      F2332   1.383       .  S
C2330      F2335   1.383       .  S
C2330      F2336   1.385       .  S
C2337      C2338   1.401   1_455  A
C2337      C2342   1.408       .  A
C2337      H2344   1.084       .  S
C2338      C4739   1.419       .  A
C2339      C4738   1.419       .  A
C2339      C2340   1.409       .  A
C2339      C2346   1.521       .  S
C2340      C4741   1.406       .  A
C2340      H2345   1.084       .  S
C2341      C4740   1.404       .  A
C2341      C2342   1.417   1_655  A
C2342      C2343   1.514       .  S
C2343      F2347   1.384       .  S
C2343      F2348   1.384       .  S
C2343      F2349   1.379       .  S
C2346      F2350   1.383       .  S
C2346      F2351   1.383       .  S
C2346      F2352   1.384       .  S
C2353      C2354   1.403   1_455  A
C2353      C2358   1.410       .  A
C2353      H2360   1.083       .  S
C2354      C4755   1.417       .  A
C2355      C4754   1.416       .  A
C2355      C2356   1.410       .  A
C2355      C2362   1.518       .  S
C2356      C4757   1.404       .  A
C2356      H2361   1.083       .  S
C2357      C4756   1.402       .  A
C2357      C2358   1.418   1_655  A
C2358      C2359   1.519       .  S
C2359      F2363   1.384       .  S
C2359      F2364   1.381       .  S
C2359      F2365   1.384       .  S
C2362      F2366   1.383       .  S
C2362      F2367   1.380       .  S
C2362      F2368   1.385       .  S
C2369      C2370   1.404       .  A
C2369      C2374   1.410       .  A
C2369      H2376   1.083       .  S
C2370      C4771   1.415   1_455  A
C2371      C4770   1.416       .  A
C2371      C2372   1.403       .  A
C2371      C2378   1.514       .  S
C2372      C4773   1.401       .  A
C2372      H2377   1.084       .  S
C2373      C4772   1.399   1_455  A
C2373      C2374   1.423       .  A
C2374      C2375   1.520       .  S
C2375      F2379   1.385       .  S
C2375      F2380   1.382       .  S
C2375      F2381   1.382       .  S
C2378      F2382   1.384       .  S
C2378      F2383   1.381       .  S
C2378      F2384   1.384       .  S
C2385      C4786   1.404       .  A
C2385      C2390   1.409       .  A
C2385      H2392   1.083       .  S
C2386      C4785   1.401   1_455  A
C2386      C2387   1.416       .  A
C2387      C2388   1.409       .  A
C2387      C2394   1.519       .  S
C2388      C2389   1.405       .  A
C2388      H2393   1.083       .  S
C2389      C4790   1.420   1_455  A
C2390      C4789   1.419       .  A
C2390      C2391   1.521       .  S
C2391      F2395   1.381       .  S
C2391      F2396   1.382       .  S
C2391      F2397   1.383       .  S
C2394      F2398   1.385       .  S
C2394      F2399   1.382       .  S
C2394      F2400   1.384       .  S
O2401      C2412   1.290       .  A
O2401     Eu2437   2.458   1_545  S
O2402      C2413   1.293       .  A
O2402     Eu2436   2.471       .  S
O2403      C2414   1.294       .  A
O2403     Eu2409   2.464       .  S
O2404      C2415   1.290       .  A
O2405      C2415   1.294       .  A
O2405     Eu2439   2.472       .  S
O2406      C2414   1.286   1_556  A
O2406     Eu2438   2.447   1_545  S
O2407      C2413   1.293       .  A
O2407     Eu3009   2.470       .  S
O2408      C2412   1.293       .  A
O2408     Eu2409   2.467       .  S
Eu2409     O3007   2.456   1_554  S
Eu2409     O2411   2.355       .  S
Eu2409     O3017   2.360   1_554  S
O2410     Eu3039   2.355       .  S
O2411     Eu2437   2.355   1_545  S
O2411     Eu2438   2.358   1_544  S
C2412      C2989   1.478       .  S
C2413      C2941   1.480       .  S
C2414      C2861   1.499       .  S
C2415      C2829   1.489       .  S
H2416      O2417   0.965       .  S
O2417     Eu3009   2.359       .  S
O2417     Eu3038   2.356   1_545  S
O2417     Eu2436   2.367       .  S
H2418      O2419   0.965       .  S
O2419     Eu2439   2.348       .  S
O2420      C2443   1.291       .  A
O2420     Eu3636   2.458       .  S
O2421      C2444   1.293       .  A
O2421     Eu3637   2.472       .  S
O2422      C2445   1.289       .  A
O2422     Eu3038   2.455       .  S
O2423      C2446   1.286       .  A
O2423     Eu3039   2.439   1_565  S
O2424      C2447   1.289       .  A
O2424     Eu2439   2.455       .  S
O2425      C2448   1.289       .  A
O2425     Eu2438   2.451   1_554  S
O2426      C2449   1.291       .  A
O2426     Eu2440   2.470       .  S
O2427      C2450   1.293   1_556  A
O2428      C2449   1.292       .  A
O2428     Eu3638   2.461   1_556  S
O2429      C2450   1.290       .  A
O2429     Eu3639   2.464   1_554  S
O2430      C2445   1.293   1_545  A
O2430     Eu2436   2.466       .  S
O2431      C2448   1.293       .  A
O2431     Eu2437   2.473       .  S
O2432      C2447   1.295       .  A
O2433      C2446   1.296   1_545  A
O2434      C2443   1.293       .  A
O2434     Eu3040   2.469       .  S
O2435      C2444   1.289       .  A
O2435     Eu2440   2.444   1_554  S
Eu2436     O3620   2.475   1_545  S
Eu2436     O3642   2.361   1_545  S
Eu2437     O3621   2.461       .  S
Eu2437     O3652   2.359       .  S
Eu2438     O3022   2.448       .  S
Eu2438     O3628   2.463       .  S
Eu2438     O3017   2.360   1_565  S
Eu2438     O3652   2.347   1_556  S
Eu2438     O4242   2.349       .  S
Eu2439     O3023   2.446   1_554  S
Eu2439     O3629   2.468   1_545  S
Eu2439     O3010   2.355   1_554  S
Eu2439     O3641   2.352   1_545  S
Eu2439     O4254   2.361   1_544  S
Eu2440     O3034   2.465       .  S
Eu2440     O2452   2.356   1_556  S
Eu2440     O3042   2.347       .  S
O2441     Eu3639   2.355   1_554  S
O2442     Eu3636   2.354       .  S
O2442     Eu4238   2.347       .  S
O2442     Eu3040   2.348       .  S
C2443      C2954   1.484       .  S
C2444      C2970   1.477       .  S
C2445      C2890   1.486       .  S
C2446      C2877   1.488       .  S
C2447      C2922   1.496       .  S
C2448      C2906   1.473       .  S
C2449      C2842   1.495   1_556  S
C2450      C2813   1.495       .  S
H2451      O2452   0.966       .  S
O2452     Eu3637   2.358       .  S
O2452     Eu3638   2.353       .  S
H2453      O2454   0.966       .  S
O2454     Eu4239   2.351       .  S
O2455      C2466   1.286       .  A
O2455     Eu2491   2.433       .  S
O2456      C2467   1.294       .  A
O2456     Eu2490   2.482       .  S
O2457      C2468   1.294       .  A
O2457     Eu2463   2.476       .  S
O2458      C2469   1.297       .  A
O2459      C2469   1.286       .  A
O2459     Eu2493   2.445       .  S
O2460      C2468   1.292       .  A
O2460     Eu2492   2.466       .  S
O2461      C2467   1.290       .  A
O2461     Eu2463   2.457       .  S
O2462      C2466   1.295       .  A
O2462     Eu2463   2.480       .  S
Eu2463     O2465   2.351       .  S
Eu2463     O2471   2.360       .  S
O2464     Eu2493   2.345       .  S
O2465     Eu2491   2.345       .  S
O2465     Eu2492   2.354       .  S
C2466      C2986   1.478       .  S
C2467      C2938   1.478       .  S
C2468      C2714   1.483       .  S
C2469      C2682   1.501       .  S
H2470      O2471   0.965       .  S
O2471     Eu2492   2.346       .  S
O2471     Eu2490   2.347       .  S
H2472      O2473   0.967       .  S
O2473     Eu2493   2.362       .  S
O2474      C2497   1.296       .  A
O2474     Eu2490   2.482       .  S
O2475      C2498   1.287       .  A
O2475     Eu2491   2.439       .  S
O2476      C2499   1.293       .  A
O2476     Eu2492   2.460       .  S
O2477      C2500   1.297       .  A
O2477     Eu2493   2.482       .  S
O2478      C2501   1.292       .  A
O2478     Eu2493   2.457       .  S
O2479      C2502   1.287       .  A
O2479     Eu2492   2.447       .  S
O2480      C2503   1.289       .  A
O2480     Eu2494   2.456       .  S
O2481      C2504   1.294       .  A
O2482      C2503   1.294       .  A
O2482     Eu2492   2.466       .  S
O2483      C2504   1.287       .  A
O2483     Eu2493   2.449       .  S
O2484      C2499   1.284       .  A
O2484     Eu2490   2.436       .  S
O2485      C2502   1.292       .  A
O2485     Eu2491   2.457       .  S
O2486      C2501   1.291       .  A
O2487      C2500   1.281       .  A
O2488      C2497   1.288       .  A
O2488     Eu2494   2.446       .  S
O2489      C2498   1.292       .  A
O2489     Eu2494   2.460       .  S
Eu2490     O2496   2.347       .  S
Eu2491     O2506   2.348       .  S
Eu2492     O2506   2.362       .  S
Eu2492     O2496   2.348       .  S
Eu2493     O2495   2.345       .  S
Eu2493     O2508   2.348       .  S
Eu2494     O2506   2.360       .  S
Eu2494     O2496   2.364       .  S
C2497      C2957   1.484       .  S
C2498      C2973   1.475       .  S
C2499      C2781   1.495       .  S
C2500      C2794   1.500       .  S
C2501      C2746   1.483       .  S
C2502      C2762   1.494       .  S
C2503      C2730   1.486       .  S
C2504      C2698   1.488       .  S
H2505      O2506   0.964       .  S
H2507      O2508   0.966       .  S
O2509      C2520   1.287       .  A
O2509     Eu2545   2.452       .  S
O2510      C2521   1.293       .  A
O2510     Eu2544   2.475       .  S
O2511      C2522   1.290       .  A
O2511     Eu2517   2.456       .  S
O2512      C2523   1.293       .  A
O2512     Eu3717   2.470   1_545  S
O2513      C2523   1.292       .  A
O2513     Eu2547   2.467       .  S
O2514      C2522   1.291       .  A
O2514     Eu2546   2.456       .  S
O2515      C2521   1.291       .  A
O2515     Eu2517   2.468       .  S
O2516      C2520   1.292       .  A
O2516     Eu2517   2.460       .  S
Eu2517     O3712   2.450       .  S
Eu2517     O3727   2.359       .  S
Eu2517     O2519   2.351       .  S
Eu2517     O3718   2.358       .  S
Eu2517     O2525   2.352       .  S
O2518     Eu3717   2.363   1_545  S
O2518     Eu2547   2.363       .  S
O2518     Eu3744   2.353   1_545  S
O2519     Eu2545   2.346       .  S
O2519     Eu2546   2.348       .  S
C2520      C4125   1.495       .  S
C2521      C4109   1.482       .  S
C2522      C2634   1.477       .  S
C2523      C2618   1.478       .  S
H2524      O2525   0.965       .  S
O2525     Eu2546   2.360       .  S
O2525     Eu2544   2.350       .  S
H2526      O2527   0.964       .  S
O2527     Eu3717   2.351   1_545  S
O2527     Eu3745   2.347   1_545  S
O2527     Eu2547   2.352       .  S
O2528      C2551   1.286       .  A
O2528     Eu2544   2.440       .  S
O2529      C2552   1.287       .  A
O2529     Eu2545   2.450       .  S
O2530      C2553   1.290       .  A
O2530     Eu2546   2.458       .  S
O2531      C2554   1.291       .  A
O2531     Eu2547   2.461       .  S
O2532      C2555   1.295       .  A
O2532     Eu2547   2.476       .  S
O2533      C2556   1.293       .  A
O2533     Eu2546   2.466       .  S
O2534      C2557   1.294       .  A
O2534     Eu2548   2.476       .  S
O2535      C2558   1.293       .  A
O2535     Eu3748   2.469   1_545  S
O2536      C2557   1.289       .  A
O2536     Eu2546   2.455       .  S
O2537      C2558   1.291       .  A
O2537     Eu2547   2.464       .  S
O2538      C2553   1.292       .  A
O2538     Eu2544   2.459       .  S
O2539      C2556   1.288       .  A
O2539     Eu2545   2.450       .  S
O2540      C2555   1.286       .  A
O2540     Eu3745   2.446   1_545  S
O2541      C2554   1.294       .  A
O2541     Eu3744   2.481   1_545  S
O2542      C2551   1.294       .  A
O2542     Eu2548   2.470       .  S
O2543      C2552   1.296       .  A
O2543     Eu2548   2.481       .  S
Eu2544     O3741   2.466       .  S
Eu2544     O3718   2.349       .  S
Eu2544     O3762   2.356       .  S
Eu2544     O2550   2.356       .  S
Eu2545     O3740   2.447       .  S
Eu2545     O3727   2.348       .  S
Eu2545     O3749   2.348       .  S
Eu2545     O2560   2.355       .  S
Eu2546     O2560   2.356       .  S
Eu2546     O2550   2.348       .  S
Eu2547     O2549   2.357       .  S
Eu2547     O2562   2.356       .  S
Eu2548     O3735   2.453       .  S
Eu2548     O3749   2.356       .  S
Eu2548     O2560   2.354       .  S
Eu2548     O3762   2.359       .  S
Eu2548     O2550   2.352       .  S
O2549     Eu3745   2.353   1_545  S
O2549     Eu3748   2.359   1_545  S
C2551      C4093   1.489       .  S
C2552      C4074   1.497       .  S
C2553      C2733   1.484       .  S
C2554      C2717   1.486       .  S
C2555      C2685   1.500       .  S
C2556      C2701   1.487       .  S
C2557      C2650   1.483       .  S
C2558      C2666   1.489       .  S
H2559      O2560   0.968       .  S
H2561      O2562   0.965       .  S
O2562     Eu3744   2.357   1_545  S
O2562     Eu3748   2.357   1_545  S
O2563      C2574   1.291       .  A
O2563     Eu2599   2.449       .  S
O2564      C2575   1.291       .  A
O2564     Eu2598   2.471       .  S
O2565      C2576   1.286       .  A
O2565     Eu3171   2.446   1_554  S
O2566      C2577   1.291       .  A
O2566     Eu2571   2.452       .  S
O2567      C2577   1.284       .  A
O2567     Eu2601   2.436       .  S
O2568      C2576   1.291       .  A
O2568     Eu2600   2.453       .  S
O2569      C2575   1.294       .  A
O2569     Eu2571   2.473       .  S
O2570      C2574   1.289       .  A
O2570     Eu2571   2.457       .  S
Eu2571     O3165   2.433       .  S
Eu2571     O2581   2.348       .  S
Eu2571     O3173   2.355       .  S
Eu2571     O2572   2.341       .  S
Eu2571     O3179   2.353       .  S
O2572     Eu2601   2.350       .  S
O2572     Eu2598   2.355       .  S
O2573     Eu3171   2.350   1_554  S
O2573     Eu3199   2.346       .  S
O2573     Eu2600   2.347       .  S
C2574      C3458   1.491       .  S
C2575      C3445   1.500       .  S
C2576      C2765   1.493       .  S
C2577      C2778   1.495       .  S
H2578      O2579   0.964       .  S
O2579     Eu3171   2.352   1_554  S
O2579     Eu2600   2.354       .  S
O2579     Eu3198   2.352       .  S
H2580      O2581   0.966       .  S
O2581     Eu2599   2.355       .  S
O2581     Eu2601   2.340       .  S
O2582      C2605   1.294       .  A
O2582     Eu2598   2.470       .  S
O2583      C2606   1.290       .  A
O2583     Eu2599   2.462       .  S
O2584      C2607   1.289       .  A
O2584     Eu2600   2.455       .  S
O2585      C2608   1.294       .  A
O2585     Eu2601   2.473       .  S
O2586      C2609   1.298       .  A
O2586     Eu2601   2.494       .  S
O2587      C2610   1.293       .  A
O2587     Eu2600   2.472       .  S
O2588      C2611   1.293       .  A
O2588     Eu3202   2.468       .  S
O2589      C2612   1.295       .  A
O2589     Eu2602   2.474       .  S
O2590      C2611   1.289       .  A
O2590     Eu2600   2.455       .  S
O2591      C2612   1.281       .  A
O2591     Eu2601   2.421       .  S
O2592      C2607   1.295       .  A
O2592     Eu3198   2.479       .  S
O2593      C2610   1.288       .  A
O2593     Eu3199   2.448       .  S
O2594      C2609   1.286       .  A
O2594     Eu2599   2.436       .  S
O2595      C2608   1.291       .  A
O2595     Eu2598   2.457       .  S
O2596      C2605   1.286       .  A
O2596     Eu2602   2.444       .  S
O2597      C2606   1.290       .  A
O2597     Eu2602   2.446       .  S
Eu2598     O3192   2.470       .  S
Eu2598     O3179   2.353       .  S
Eu2598     O2616   2.360       .  S
Eu2598     O3204   2.348       .  S
Eu2599     O3193   2.453       .  S
Eu2599     O3173   2.350       .  S
Eu2599     O2603   2.348       .  S
Eu2599     O3214   2.349       .  S
Eu2600     O2614   2.354       .  S
Eu2600     O2604   2.349       .  S
Eu2601     O2603   2.344       .  S
Eu2601     O2616   2.360       .  S
Eu2602     O3188   2.464       .  S
Eu2602     O2603   2.346       .  S
Eu2602     O3214   2.358       .  S
Eu2602     O2616   2.350       .  S
Eu2602     O3204   2.350       .  S
O2604     Eu3198   2.350       .  S
O2604     Eu3202   2.352       .  S
C2605      C3410   1.496       .  S
C2606      C3426   1.483       .  S
C2607      C2637   1.485       .  S
C2608      C2653   1.479       .  S
C2609      C2669   1.488       .  S
C2610      C2621   1.473       .  S
C2611      C2749   1.488       .  S
C2612      C2797   1.499       .  S
H2613      O2614   0.966       .  S
O2614     Eu3199   2.355       .  S
O2614     Eu3202   2.357       .  S
H2615      O2616   0.967       .  S
C2617      C2618   1.405       .  A
C2617      C2622   1.411       .  A
C2617      H2624   1.083       .  S
C2618      C2619   1.416       .  A
C2619      C2620   1.405       .  A
C2619      C2626   1.516       .  S
C2620      C2621   1.398       .  A
C2620      H2625   1.081       .  S
C2621      C2622   1.414       .  A
C2622      C2623   1.517       .  S
C2623      F2627   1.384       .  S
C2623      F2628   1.382       .  S
C2623      F2629   1.382       .  S
C2626      F2630   1.380       .  S
C2626      F2631   1.382       .  S
C2626      F2632   1.385       .  S
C2633      C2634   1.401       .  A
C2633      C2638   1.407       .  A
C2633      H2640   1.083       .  S
C2634      C2635   1.416       .  A
C2635      C2636   1.409       .  A
C2635      C2642   1.521       .  S
C2636      C2637   1.406       .  A
C2636      H2641   1.084       .  S
C2637      C2638   1.422       .  A
C2638      C2639   1.522       .  S
C2639      F2643   1.385       .  S
C2639      F2644   1.382       .  S
C2639      F2645   1.382       .  S
C2642      F2646   1.385       .  S
C2642      F2647   1.382       .  S
C2642      F2648   1.384       .  S
C2649      C2650   1.404       .  A
C2649      C2654   1.409       .  A
C2649      H2656   1.084       .  S
C2650      C2651   1.420       .  A
C2651      C2652   1.408       .  A
C2651      C2658   1.519       .  S
C2652      C2653   1.401       .  A
C2652      H2657   1.083       .  S
C2653      C2654   1.417       .  A
C2654      C2655   1.519       .  S
C2655      F2659   1.385       .  S
C2655      F2660   1.381       .  S
C2655      F2661   1.384       .  S
C2658      F2662   1.382       .  S
C2658      F2663   1.382       .  S
C2658      F2664   1.385       .  S
C2665      C2666   1.404       .  A
C2665      C2670   1.410       .  A
C2665      H2672   1.083       .  S
C2666      C2667   1.419       .  A
C2667      C2668   1.407       .  A
C2667      C2674   1.516       .  S
C2668      C2669   1.401       .  A
C2668      H2673   1.083       .  S
C2669      C2670   1.424       .  A
C2670      C2671   1.521       .  S
C2671      F2675   1.385       .  S
C2671      F2676   1.383       .  S
C2671      F2677   1.383       .  S
C2674      F2678   1.382       .  S
C2674      F2679   1.384       .  S
C2674      F2680   1.384       .  S
C2681      C2682   1.405       .  A
C2681      C2686   1.410       .  A
C2681      H2688   1.082       .  S
C2682      C2683   1.427       .  A
C2683      C2684   1.407       .  A
C2683      C2690   1.522       .  S
C2684      C2685   1.404       .  A
C2684      H2689   1.078       .  S
C2685      C2686   1.427       .  A
C2686      C2687   1.521       .  S
C2687      F2691   1.382       .  S
C2687      F2692   1.384       .  S
C2687      F2693   1.377       .  S
C2690      F2694   1.383       .  S
C2690      F2695   1.382       .  S
C2690      F2696   1.384       .  S
C2697      C2698   1.403       .  A
C2697      C2702   1.406       .  A
C2697      H2704   1.083       .  S
C2698      C2699   1.423       .  A
C2699      C2700   1.408       .  A
C2699      C2706   1.522       .  S
C2700      C2701   1.404       .  A
C2700      H2705   1.083       .  S
C2701      C2702   1.421       .  A
C2702      C2703   1.520       .  S
C2703      F2707   1.385       .  S
C2703      F2708   1.383       .  S
C2703      F2709   1.382       .  S
C2706      F2710   1.382       .  S
C2706      F2711   1.383       .  S
C2706      F2712   1.385       .  S
C2713      C2714   1.400       .  A
C2713      C2718   1.407       .  A
C2713      H2720   1.083       .  S
C2714      C2715   1.418       .  A
C2715      C2716   1.413       .  A
C2715      C2722   1.519       .  S
C2716      C2717   1.407       .  A
C2716      H2721   1.083       .  S
C2717      C2718   1.416       .  A
C2718      C2719   1.513       .  S
C2719      F2723   1.382       .  S
C2719      F2724   1.384       .  S
C2719      F2725   1.384       .  S
C2722      F2726   1.384       .  S
C2722      F2727   1.382       .  S
C2722      F2728   1.385       .  S
C2729      C2730   1.405       .  A
C2729      C2734   1.407       .  A
C2729      H2736   1.083       .  S
C2730      C2731   1.422       .  A
C2731      C2732   1.405       .  A
C2731      C2738   1.521       .  S
C2732      C2733   1.403       .  A
C2732      H2737   1.082       .  S
C2733      C2734   1.419       .  A
C2734      C2735   1.520       .  S
C2735      F2739   1.385       .  S
C2735      F2740   1.383       .  S
C2735      F2741   1.382       .  S
C2738      F2742   1.382       .  S
C2738      F2743   1.382       .  S
C2738      F2744   1.386       .  S
C2745      C2746   1.401       .  A
C2745      C2750   1.403       .  A
C2745      H2752   1.083       .  S
C2746      C2747   1.420       .  A
C2747      C2748   1.411       .  A
C2747      C2754   1.520       .  S
C2748      C2749   1.408       .  A
C2748      H2753   1.084       .  S
C2749      C2750   1.421       .  A
C2750      C2751   1.519       .  S
C2751      F2755   1.385       .  S
C2751      F2756   1.381       .  S
C2751      F2757   1.382       .  S
C2754      F2758   1.383       .  S
C2754      F2759   1.383       .  S
C2754      F2760   1.385       .  S
C2761      C2762   1.405       .  A
C2761      C2766   1.404       .  A
C2761      H2768   1.079       .  S
C2762      C2763   1.423       .  A
C2763      C2764   1.407       .  A
C2763      C2770   1.522       .  S
C2764      C2765   1.407       .  A
C2764      H2769   1.082       .  S
C2765      C2766   1.424       .  A
C2766      C2767   1.524       .  S
C2767      F2771   1.381       .  S
C2767      F2772   1.377       .  S
C2767      F2773   1.383       .  S
C2770      F2774   1.383       .  S
C2770      F2775   1.383       .  S
C2770      F2776   1.385       .  S
C2777      C2778   1.408       .  A
C2777      C2782   1.405       .  A
C2777      H2784   1.081       .  S
C2778      C2779   1.425       .  A
C2779      C2780   1.403       .  A
C2779      C2786   1.525       .  S
C2780      C2781   1.407       .  A
C2780      H2785   1.081       .  S
C2781      C2782   1.426       .  A
C2782      C2783   1.525       .  S
C2783      F2787   1.385       .  S
C2783      F2788   1.382       .  S
C2783      F2789   1.383       .  S
C2786      F2790   1.385       .  S
C2786      F2791   1.383       .  S
C2786      F2792   1.384       .  S
C2793      C2794   1.406       .  A
C2793      C2798   1.406       .  A
C2793      H2800   1.081       .  S
C2794      C2795   1.431       .  A
C2795      C2796   1.405       .  A
C2795      C2802   1.527       .  S
C2796      C2797   1.405       .  A
C2796      H2801   1.081       .  S
C2797      C2798   1.430       .  A
C2798      C2799   1.527       .  S
C2799      F2803   1.385       .  S
C2799      F2804   1.383       .  S
C2799      F2805   1.383       .  S
C2802      F2806   1.383       .  S
C2802      F2807   1.383       .  S
C2802      F2808   1.385       .  S
C2809      C2810   1.404   1_554  A
C2809      C2814   1.407       .  A
C2809      H2816   1.083       .  S
C2810      C3205   1.487   1_556  S
C2810      C3411   1.423       .  A
C2811      C3410   1.425       .  A
C2811      C2812   1.407       .  A
C2811      C2818   1.525       .  S
C2812      C3413   1.406       .  A
C2812      H2817   1.077       .  S
C2813      C3412   1.407   1_554  A
C2813      C2814   1.423       .  A
C2814      C2815   1.519       .  S
C2815      F2819   1.384       .  S
C2815      F3420   1.381       .  S
C2815      F2821   1.383       .  S
C2818      F2822   1.383       .  S
C2818      F3423   1.383       .  S
C2818      F2824   1.384       .  S
F2820      C3415   1.380       .  S
F2823      C3418   1.383       .  S
C2825      C2826   1.403   1_554  A
C2825      C2830   1.407       .  A
C2825      H2832   1.083       .  S
C2826      C3206   1.482       .  S
C2826      C3427   1.419       .  A
C2827      C3426   1.419       .  A
C2827      C2828   1.411       .  A
C2827      C2834   1.522       .  S
C2828      C3429   1.408       .  A
C2828      H2833   1.083       .  S
C2829      C3428   1.406   1_554  A
C2829      C2830   1.422       .  A
C2830      C2831   1.520       .  S
C2831      F2835   1.385       .  S
C2831      F3436   1.382       .  S
C2831      F2837   1.381       .  S
C2834      F2838   1.384       .  S
C2834      F3439   1.383       .  S
C2834      F2840   1.385       .  S
F2836      C3431   1.382       .  S
F2839      C3434   1.381       .  S
C2841      C3442   1.406       .  A
C2841      C2846   1.411       .  A
C2841      H2848   1.083       .  S
C2842      C3441   1.407       .  A
C2842      C2843   1.422   1_554  A
C2843      C2844   1.408       .  A
C2843      C2850   1.519       .  S
C2844      C2845   1.406   1_556  A
C2844      H2849   1.083       .  S
C2845      C3175   1.493       .  S
C2845      C3446   1.422       .  A
C2846      C3445   1.424       .  A
C2846      C2847   1.521       .  S
C2847      F2851   1.384       .  S
C2847      F2852   1.383       .  S
C2847      F2853   1.383       .  S
C2850      F2854   1.380       .  S
C2850      F2855   1.382       .  S
C2850      F2856   1.385       .  S
C2857      C2858   1.408   1_554  A
C2857      C2862   1.409       .  A
C2857      H2864   1.081       .  S
C2858      C3174   1.498       .  S
C2858      C3459   1.424       .  A
C2859      C3458   1.420       .  A
C2859      C2860   1.403       .  A
C2859      C2866   1.520       .  S
C2860      C3461   1.406       .  A
C2860      H2865   1.080       .  S
C2861      C3460   1.405   1_554  A
C2861      C2862   1.426       .  A
C2862      C2863   1.524       .  S
C2863      F3467   1.385       .  S
C2863      F3468   1.384   1_554  S
C2863      F2869   1.383       .  S
C2866      F2870   1.383       .  S
C2866      F3471   1.380       .  S
C2866      F3472   1.385       .  S
F2867      C3463   1.385       .  S
F2868      C3463   1.383       .  S
F2871      C3466   1.378   1_554  S
F2872      C3466   1.383       .  S
C2873      C4074   1.405       .  A
C2873      C2878   1.408       .  A
C2873      H2880   1.082       .  S
C2874      C3752   1.493       .  S
C2874      C4073   1.405   1_545  A
C2874      C2875   1.424       .  A
C2875      C2876   1.406       .  A
C2875      C2882   1.518       .  S
C2876      C2877   1.400   1_545  A
C2876      H2881   1.083       .  S
C2877      C4078   1.424       .  A
C2878      C4077   1.425       .  A
C2878      C2879   1.522       .  S
C2879      F4083   1.385       .  S
C2879      F4084   1.383       .  S
C2879      F2885   1.383       .  S
C2882      F2886   1.383       .  S
C2882      F4087   1.381       .  S
C2882      F4088   1.385       .  S
F2883      C4079   1.385       .  S
F2884      C4079   1.382       .  S
F2887      C4082   1.380       .  S
F2888      C4082   1.385       .  S
C2889      C2890   1.405   1_545  A
C2889      C2894   1.408       .  A
C2889      H2896   1.083       .  S
C2890      C4091   1.423       .  A
C2891      C4090   1.429       .  A
C2891      C2892   1.407       .  A
C2891      C2898   1.523       .  S
C2892      C4093   1.401       .  A
C2892      H2897   1.083       .  S
C2893      C3751   1.483       .  S
C2893      C4092   1.403       .  A
C2893      C2894   1.419   1_565  A
C2894      C2895   1.521       .  S
C2895      F2899   1.384       .  S
C2895      F2900   1.382       .  S
C2895      F2901   1.384       .  S
C2898      F2902   1.382       .  S
C2898      F2903   1.383       .  S
C2898      F2904   1.385       .  S
C2905      C4106   1.406       .  A
C2905      C2910   1.413       .  A
C2905      H2912   1.083       .  S
C2906      C4105   1.404       .  A
C2906      C2907   1.416   1_565  A
C2907      C2908   1.406       .  A
C2907      C2914   1.522       .  S
C2908      C2909   1.402   1_545  A
C2908      H2913   1.078       .  S
C2909      C3721   1.482       .  S
C2909      C4110   1.417       .  A
C2910      C4109   1.416       .  A
C2910      C2911   1.517       .  S
C2911      F2915   1.384       .  S
C2911      F4116   1.382       .  S
C2911      F2917   1.383       .  S
C2914      F2918   1.382       .  S
C2914      F4119   1.383       .  S
C2914      F2920   1.384       .  S
F2916      C4111   1.383       .  S
F2919      C4114   1.383       .  S
C2921      C4122   1.405       .  A
C2921      C2926   1.408       .  A
C2921      H2928   1.078       .  S
C2922      C4121   1.403   1_545  A
C2922      C2923   1.422       .  A
C2923      C2924   1.410       .  A
C2923      C2930   1.522       .  S
C2924      C2925   1.407       .  A
C2924      H2929   1.081       .  S
C2925      C3720   1.498   1_545  S
C2925      C4126   1.426   1_545  A
C2926      C4125   1.424       .  A
C2926      C2927   1.523       .  S
C2927      F2931   1.380       .  S
C2927      F2932   1.383       .  S
C2927      F4133   1.379       .  S
C2930      F4134   1.382       .  S
C2930      F2935   1.384       .  S
C2930      F2936   1.385       .  S
F2933      C4127   1.379       .  S
F2934      C4130   1.382       .  S
C2937      C2938   1.403       .  A
C2937      C2942   1.410       .  A
C2937      H2944   1.083       .  S
C2939      C2940   1.409       .  A
C2939      C2946   1.518       .  S
C2940      H2945   1.083       .  S
C2941      C2942   1.417       .  A
C2942      C2943   1.516       .  S
C2943      F2947   1.385       .  S
C2943      F2948   1.382       .  S
C2943      F2949   1.377       .  S
C2946      F2950   1.383       .  S
C2946      F2951   1.383       .  S
C2946      F2952   1.385       .  S
C2953      C2954   1.406       .  A
C2953      C2958   1.412       .  A
C2953      H2960   1.083       .  S
C2955      C2956   1.406       .  A
C2955      C2962   1.517       .  S
C2956      H2961   1.082       .  S
C2957      C2958   1.421       .  A
C2958      C2959   1.521       .  S
C2959      F2963   1.385       .  S
C2959      F2964   1.383       .  S
C2959      F2965   1.383       .  S
C2962      F2966   1.384       .  S
C2962      F2967   1.382       .  S
C2962      F2968   1.385       .  S
C2969      C2970   1.399       .  A
C2969      C2974   1.404       .  A
C2969      H2976   1.083       .  S
C2971      C2972   1.402       .  A
C2971      C2978   1.512       .  S
C2972      H2977   1.084       .  S
C2973      C2974   1.416       .  A
C2974      C2975   1.514       .  S
C2975      F2979   1.384       .  S
C2975      F2980   1.383       .  S
C2975      F2981   1.382       .  S
C2978      F2982   1.383       .  S
C2978      F2983   1.383       .  S
C2978      F2984   1.382       .  S
C2985      C2990   1.409       .  A
C2985      H2992   1.084       .  S
C2986      C2987   1.420       .  A
C2987      C2988   1.407       .  A
C2987      C2994   1.521       .  S
C2988      C2989   1.402       .  A
C2988      H2993   1.083       .  S
C2990      C2991   1.520       .  S
C2991      F2995   1.381       .  S
C2991      F2996   1.383       .  S
C2991      F2997   1.382       .  S
C2994      F2998   1.383       .  S
C2994      F2999   1.382       .  S
C2994      F3000   1.385       .  S
O3001      C3012   1.290       .  A
O3001     Eu3037   2.452   1_545  S
O3002      C3013   1.296       .  A
O3002     Eu3036   2.484       .  S
O3003      C3014   1.293       .  A
O3003     Eu3009   2.459       .  S
O3004      C3015   1.291       .  A
O3005      C3015   1.292       .  A
O3005     Eu3039   2.465       .  S
O3006      C3014   1.288       .  A
O3006     Eu3038   2.452   1_545  S
O3007      C3013   1.290       .  A
O3008      C3012   1.293       .  A
O3008     Eu3009   2.473       .  S
Eu3009     O3011   2.350       .  S
O3011     Eu3037   2.351   1_545  S
O3011     Eu3038   2.350   1_545  S
C3012      C3589   1.479       .  S
C3013      C3541   1.488       .  S
C3014      C3461   1.494       .  S
C3015      C3429   1.489       .  S
H3016      O3017   0.966       .  S
O3017     Eu3036   2.360       .  S
H3018      O3019   0.966       .  S
O3019     Eu3039   2.349       .  S
O3020      C3043   1.290       .  A
O3020     Eu4236   2.454       .  S
O3021      C3044   1.288       .  A
O3021     Eu4237   2.446       .  S
O3022      C3045   1.288       .  A
O3023      C3046   1.287       .  A
O3024      C3047   1.288       .  A
O3024     Eu3039   2.453       .  S
O3025      C3048   1.290       .  A
O3025     Eu3038   2.456       .  S
O3026      C3049   1.292       .  A
O3026     Eu3040   2.469       .  S
O3027      C3050   1.292       .  A
O3028      C3049   1.292       .  A
O3028     Eu4238   2.462       .  S
O3029      C3050   1.290       .  A
O3029     Eu4239   2.467       .  S
O3030      C3045   1.295       .  A
O3030     Eu3036   2.481   1_565  S
O3031      C3048   1.293       .  A
O3031     Eu3037   2.471       .  S
O3032      C3047   1.294   1_565  A
O3033      C3046   1.295       .  A
O3034      C3043   1.291       .  A
O3035      C3044   1.292       .  A
O3035     Eu3040   2.462       .  S
Eu3036     O4220   2.464   1_545  S
Eu3036     O4242   2.366   1_545  S
Eu3037     O4221   2.452       .  S
Eu3037     O4252   2.361       .  S
Eu3038     O4228   2.455       .  S
Eu3038     O4252   2.349       .  S
Eu3038     O3642   2.351       .  S
Eu3039     O4229   2.457   1_545  S
Eu3039     O4241   2.347   1_545  S
Eu3039     O3654   2.358   1_545  S
Eu3040     O3052   2.347       .  S
O3041     Eu4239   2.348       .  S
O3042     Eu4236   2.360       .  S
O3042     Eu3638   2.353   1_556  S
C3043      C3554   1.471       .  S
C3044      C3570   1.479       .  S
C3045      C3490   1.487       .  S
C3046      C3477   1.491       .  S
C3047      C3522   1.498       .  S
C3048      C3506   1.474       .  S
C3049      C3442   1.495       .  S
C3050      C3413   1.500       .  S
H3051      O3052   0.966       .  S
O3052     Eu4237   2.354       .  S
O3052     Eu4238   2.347       .  S
H3053      O3054   0.966       .  S
O3054     Eu3639   2.355       .  S
O3055      C3066   1.289       .  A
O3055     Eu3091   2.454       .  S
O3056      C3067   1.294       .  A
O3056     Eu3090   2.470       .  S
O3057      C3068   1.295       .  A
O3057     Eu3063   2.477       .  S
O3058      C3069   1.297       .  A
O3059      C3069   1.285       .  A
O3059     Eu3093   2.442       .  S
O3060      C3068   1.291       .  A
O3060     Eu3092   2.465       .  S
O3061      C3067   1.289       .  A
O3061     Eu3063   2.453       .  S
O3062      C3066   1.294       .  A
O3062     Eu3063   2.477       .  S
Eu3063     O3065   2.353       .  S
Eu3063     O3071   2.364       .  S
O3064     Eu3093   2.344       .  S
O3065     Eu3091   2.348       .  S
O3065     Eu3092   2.357       .  S
C3066      C3586   1.483       .  S
C3067      C3538   1.481       .  S
C3068      C3314   1.488       .  S
C3069      C3282   1.502       .  S
H3070      O3071   0.966       .  S
O3071     Eu3092   2.353       .  S
O3071     Eu3090   2.346       .  S
H3072      O3073   0.966       .  S
O3073     Eu3093   2.362       .  S
O3074      C3097   1.290       .  A
O3074     Eu3090   2.460       .  S
O3075      C3098   1.287       .  A
O3075     Eu3091   2.442       .  S
O3076      C3099   1.292       .  A
O3076     Eu3092   2.456       .  S
O3077      C3100   1.297       .  A
O3077     Eu3093   2.484       .  S
O3078      C3101   1.293       .  A
O3078     Eu3093   2.464       .  S
O3079      C3102   1.286       .  A
O3079     Eu3092   2.447       .  S
O3080      C3103   1.290       .  A
O3080     Eu3094   2.457       .  S
O3081      C3104   1.294       .  A
O3082      C3103   1.293       .  A
O3082     Eu3092   2.470       .  S
O3083      C3104   1.290       .  A
O3083     Eu3093   2.457       .  S
O3084      C3099   1.285       .  A
O3084     Eu3090   2.444       .  S
O3085      C3102   1.293       .  A
O3085     Eu3091   2.463       .  S
O3086      C3101   1.290       .  A
O3087      C3100   1.280       .  A
O3088      C3097   1.291       .  A
O3088     Eu3094   2.463       .  S
O3089      C3098   1.294       .  A
O3089     Eu3094   2.471       .  S
Eu3090     O3096   2.345       .  S
Eu3091     O3106   2.356       .  S
Eu3092     O3106   2.357       .  S
Eu3092     O3096   2.344       .  S
Eu3093     O3095   2.350       .  S
Eu3093     O3108   2.349       .  S
Eu3094     O3106   2.358       .  S
Eu3094     O3096   2.355       .  S
C3097      C3557   1.471       .  S
C3098      C3573   1.479       .  S
C3099      C3381   1.502       .  S
C3100      C3394   1.493       .  S
C3101      C3346   1.485       .  S
C3102      C3362   1.496       .  S
C3103      C3330   1.485       .  S
C3104      C3298   1.487       .  S
H3105      O3106   0.964       .  S
H3107      O3108   0.966       .  S
O3109      C3120   1.285       .  A
O3109     Eu3145   2.444       .  S
O3110      C3121   1.296       .  A
O3110     Eu3144   2.491       .  S
O3111      C3122   1.290       .  A
O3111     Eu3117   2.458       .  S
O3112      C3123   1.291       .  A
O3112     Eu4317   2.462   1_545  S
O3113      C3123   1.290       .  A
O3113     Eu3147   2.455       .  S
O3114      C3122   1.293       .  A
O3114     Eu3146   2.468       .  S
O3115      C3121   1.291       .  A
O3115     Eu3117   2.466       .  S
O3116      C3120   1.294       .  A
O3116     Eu3117   2.471       .  S
Eu3117     O4312   2.467       .  S
Eu3117     O4327   2.354       .  S
Eu3117     O3119   2.351       .  S
Eu3117     O4318   2.365       .  S
Eu3117     O3125   2.361       .  S
O3118     Eu4317   2.360   1_545  S
O3118     Eu3147   2.358       .  S
O3118     Eu4344   2.352   1_545  S
O3119     Eu3145   2.344       .  S
O3119     Eu3146   2.348       .  S
C3120      C4725   1.496       .  S
C3121      C4709   1.489       .  S
C3122      C3234   1.479       .  S
C3123      C3218   1.471       .  S
H3124      O3125   0.965       .  S
O3125     Eu3146   2.364       .  S
O3125     Eu3144   2.362       .  S
H3126      O3127   0.965       .  S
O3127     Eu4317   2.353   1_545  S
O3127     Eu4345   2.356   1_545  S
O3127     Eu3147   2.360       .  S
O3128      C3151   1.293       .  A
O3128     Eu3144   2.473       .  S
O3129      C3152   1.288       .  A
O3129     Eu3145   2.448       .  S
O3130      C3153   1.291       .  A
O3130     Eu3146   2.462       .  S
O3131      C3154   1.294       .  A
O3131     Eu3147   2.482       .  S
O3132      C3155   1.296       .  A
O3132     Eu3147   2.479       .  S
O3133      C3156   1.294       .  A
O3133     Eu3146   2.473       .  S
O3134      C3157   1.292       .  A
O3134     Eu3148   2.471       .  S
O3135      C3158   1.294       .  A
O3135     Eu4348   2.472   1_545  S
O3136      C3157   1.293       .  A
O3136     Eu3146   2.470       .  S
O3137      C3158   1.289       .  A
O3137     Eu3147   2.451       .  S
O3138      C3153   1.293       .  A
O3138     Eu3144   2.462       .  S
O3139      C3156   1.288       .  A
O3139     Eu3145   2.448       .  S
O3140      C3155   1.286       .  A
O3140     Eu4345   2.443   1_545  S
O3141      C3154   1.296       .  A
O3141     Eu4344   2.491   1_545  S
O3142      C3151   1.293       .  A
O3142     Eu3148   2.468       .  S
O3143      C3152   1.294       .  A
O3143     Eu3148   2.471       .  S
Eu3144     O4341   2.467       .  S
Eu3144     O4318   2.357       .  S
Eu3144     O4362   2.355       .  S
Eu3144     O3150   2.357       .  S
Eu3145     O4340   2.451       .  S
Eu3145     O4327   2.349       .  S
Eu3145     O4349   2.349       .  S
Eu3145     O3160   2.351       .  S
Eu3146     O3160   2.355       .  S
Eu3146     O3150   2.354       .  S
Eu3147     O3149   2.354       .  S
Eu3147     O3162   2.354       .  S
Eu3148     O4335   2.464       .  S
Eu3148     O4349   2.355       .  S
Eu3148     O3160   2.355       .  S
Eu3148     O4362   2.355       .  S
Eu3148     O3150   2.355       .  S
O3149     Eu4345   2.350   1_545  S
O3149     Eu4348   2.353   1_545  S
C3151      C4693   1.490       .  S
C3152      C4674   1.493       .  S
C3153      C3333   1.482       .  S
C3154      C3317   1.500       .  S
C3155      C3285   1.499       .  S
C3156      C3301   1.487       .  S
C3157      C3250   1.482       .  S
C3158      C3266   1.488       .  S
H3159      O3160   0.968       .  S
H3161      O3162   0.965       .  S
O3162     Eu4344   2.354   1_545  S
O3162     Eu4348   2.356   1_545  S
O3163      C3174   1.291       .  A
O3163     Eu3199   2.456   1_556  S
O3164      C3175   1.291       .  A
O3164     Eu3198   2.470       .  S
O3165      C3176   1.284       .  A
O3166      C3177   1.294       .  A
O3166     Eu3171   2.470       .  S
O3167      C3177   1.283       .  A
O3167     Eu3201   2.436       .  S
O3168      C3176   1.294       .  A
O3168     Eu3200   2.468       .  S
O3169      C3175   1.292       .  A
O3169     Eu3171   2.457   1_554  S
O3170      C3174   1.287   1_554  A
O3170     Eu3171   2.451   1_554  S
Eu3171     O3181   2.345       .  S
Eu3171     O3172   2.347       .  S
O3172     Eu3201   2.351       .  S
O3172     Eu3198   2.357   1_556  S
O3173     Eu3200   2.345       .  S
C3176      C3365   1.497       .  S
C3177      C3378   1.502       .  S
H3178      O3179   0.964       .  S
O3179     Eu3200   2.360       .  S
H3180      O3181   0.966       .  S
O3181     Eu3199   2.356   1_556  S
O3181     Eu3201   2.348       .  S
O3182      C3205   1.294       .  A
O3182     Eu3198   2.468       .  S
O3183      C3206   1.289       .  A
O3183     Eu3199   2.458   1_556  S
O3184      C3207   1.288       .  A
O3184     Eu3200   2.447       .  S
O3185      C3208   1.295       .  A
O3185     Eu3201   2.484       .  S
O3186      C3209   1.295       .  A
O3186     Eu3201   2.480       .  S
O3187      C3210   1.291       .  A
O3187     Eu3200   2.463       .  S
O3188      C3211   1.293       .  A
O3189      C3212   1.295       .  A
O3189     Eu3202   2.473   1_556  S
O3190      C3211   1.291       .  A
O3190     Eu3200   2.464       .  S
O3191      C3212   1.282       .  A
O3191     Eu3201   2.423       .  S
O3192      C3207   1.293       .  A
O3193      C3210   1.289       .  A
O3194      C3209   1.286       .  A
O3194     Eu3199   2.441   1_556  S
O3195      C3208   1.292       .  A
O3195     Eu3198   2.467   1_556  S
O3196      C3205   1.285       .  A
O3196     Eu3202   2.436       .  S
O3197      C3206   1.290       .  A
O3197     Eu3202   2.453   1_556  S
Eu3198     O3216   2.361   1_554  S
Eu3199     O3203   2.348   1_554  S
Eu3200     O3214   2.357       .  S
Eu3200     O3204   2.350       .  S
Eu3201     O3203   2.351       .  S
Eu3201     O3216   2.354       .  S
Eu3202     O3203   2.345   1_554  S
Eu3202     O3216   2.355   1_554  S
C3207      C3237   1.478       .  S
C3208      C3253   1.484       .  S
C3209      C3269   1.487       .  S
C3210      C3221   1.472       .  S
C3211      C3349   1.488       .  S
C3212      C3397   1.493       .  S
H3213      O3214   0.966       .  S
H3215      O3216   0.966       .  S
C3217      C3218   1.402       .  A
C3217      C3222   1.408       .  A
C3217      H3224   1.083       .  S
C3218      C3219   1.414       .  A
C3219      C3220   1.405       .  A
C3219      C3226   1.517       .  S
C3220      C3221   1.401       .  A
C3220      H3225   1.082       .  S
C3221      C3222   1.414       .  A
C3222      C3223   1.516       .  S
C3223      F3227   1.384       .  S
C3223      F3228   1.382       .  S
C3223      F3229   1.381       .  S
C3226      F3230   1.380       .  S
C3226      F3231   1.383       .  S
C3226      F3232   1.384       .  S
C3233      C3234   1.402       .  A
C3233      C3238   1.406       .  A
C3233      H3240   1.083       .  S
C3234      C3235   1.418       .  A
C3235      C3236   1.408       .  A
C3235      C3242   1.518       .  S
C3236      C3237   1.403       .  A
C3236      H3241   1.084       .  S
C3237      C3238   1.419       .  A
C3238      C3239   1.520       .  S
C3239      F3243   1.385       .  S
C3239      F3244   1.382       .  S
C3239      F3245   1.383       .  S
C3242      F3246   1.383       .  S
C3242      F3247   1.382       .  S
C3242      F3248   1.384       .  S
C3249      C3250   1.402       .  A
C3249      C3254   1.410       .  A
C3249      H3256   1.082       .  S
C3250      C3251   1.416       .  A
C3251      C3252   1.412       .  A
C3251      C3258   1.518       .  S
C3252      C3253   1.405       .  A
C3252      H3257   1.083       .  S
C3253      C3254   1.417       .  A
C3254      C3255   1.517       .  S
C3255      F3259   1.385       .  S
C3255      F3260   1.382       .  S
C3255      F3261   1.383       .  S
C3258      F3262   1.383       .  S
C3258      F3263   1.383       .  S
C3258      F3264   1.384       .  S
C3265      C3266   1.402       .  A
C3265      C3270   1.407       .  A
C3265      H3272   1.083       .  S
C3266      C3267   1.421       .  A
C3267      C3268   1.408       .  A
C3267      C3274   1.517       .  S
C3268      C3269   1.402       .  A
C3268      H3273   1.083       .  S
C3269      C3270   1.423       .  A
C3270      C3271   1.521       .  S
C3271      F3275   1.385       .  S
C3271      F3276   1.383       .  S
C3271      F3277   1.382       .  S
C3274      F3278   1.383       .  S
C3274      F3279   1.384       .  S
C3274      F3280   1.384       .  S
C3281      C3282   1.406       .  A
C3281      C3286   1.407       .  A
C3281      H3288   1.082       .  S
C3282      C3283   1.429       .  A
C3283      C3284   1.408       .  A
C3283      C3290   1.523       .  S
C3284      C3285   1.404       .  A
C3284      H3289   1.078       .  S
C3285      C3286   1.424       .  A
C3286      C3287   1.520       .  S
C3287      F3291   1.383       .  S
C3287      F3292   1.384       .  S
C3287      F3293   1.376       .  S
C3290      F3294   1.383       .  S
C3290      F3295   1.383       .  S
C3290      F3296   1.385       .  S
C3297      C3298   1.403       .  A
C3297      C3302   1.407       .  A
C3297      H3304   1.083       .  S
C3298      C3299   1.421       .  A
C3299      C3300   1.409       .  A
C3299      C3306   1.519       .  S
C3300      C3301   1.404       .  A
C3300      H3305   1.083       .  S
C3301      C3302   1.422       .  A
C3302      C3303   1.520       .  S
C3303      F3307   1.385       .  S
C3303      F3308   1.383       .  S
C3303      F3309   1.382       .  S
C3306      F3310   1.382       .  S
C3306      F3311   1.382       .  S
C3306      F3312   1.385       .  S
C3313      C3314   1.398       .  A
C3313      C3318   1.408       .  A
C3313      H3320   1.084       .  S
C3314      C3315   1.421       .  A
C3315      C3316   1.418       .  A
C3315      C3322   1.519       .  S
C3316      C3317   1.409       .  A
C3316      H3321   1.083       .  S
C3317      C3318   1.418       .  A
C3318      C3319   1.509       .  S
C3319      F3323   1.382       .  S
C3319      F3324   1.384       .  S
C3319      F3325   1.383       .  S
C3322      F3326   1.384       .  S
C3322      F3327   1.382       .  S
C3322      F3328   1.384       .  S
C3329      C3330   1.405       .  A
C3329      C3334   1.409       .  A
C3329      H3336   1.084       .  S
C3330      C3331   1.420       .  A
C3331      C3332   1.406       .  A
C3331      C3338   1.519       .  S
C3332      C3333   1.402       .  A
C3332      H3337   1.084       .  S
C3333      C3334   1.419       .  A
C3334      C3335   1.519       .  S
C3335      F3339   1.385       .  S
C3335      F3340   1.383       .  S
C3335      F3341   1.382       .  S
C3338      F3342   1.383       .  S
C3338      F3343   1.383       .  S
C3338      F3344   1.385       .  S
C3345      C3346   1.403       .  A
C3345      C3350   1.406       .  A
C3345      H3352   1.083       .  S
C3346      C3347   1.420       .  A
C3347      C3348   1.410       .  A
C3347      C3354   1.521       .  S
C3348      C3349   1.406       .  A
C3348      H3353   1.083       .  S
C3349      C3350   1.421       .  A
C3350      C3351   1.518       .  S
C3351      F3355   1.385       .  S
C3351      F3356   1.381       .  S
C3351      F3357   1.382       .  S
C3354      F3358   1.382       .  S
C3354      F3359   1.383       .  S
C3354      F3360   1.385       .  S
C3361      C3362   1.405       .  A
C3361      C3366   1.405       .  A
C3361      H3368   1.079       .  S
C3362      C3363   1.424       .  A
C3363      C3364   1.406       .  A
C3363      C3370   1.523       .  S
C3364      C3365   1.407       .  A
C3364      H3369   1.081       .  S
C3365      C3366   1.428       .  A
C3366      C3367   1.524       .  S
C3367      F3371   1.384       .  S
C3367      F3372   1.381       .  S
C3367      F3373   1.384       .  S
C3370      F3374   1.384       .  S
C3370      F3375   1.382       .  S
C3370      F3376   1.385       .  S
C3377      C3378   1.407       .  A
C3377      C3382   1.406       .  A
C3377      H3384   1.080       .  S
C3378      C3379   1.429       .  A
C3379      C3380   1.406       .  A
C3379      C3386   1.527       .  S
C3380      C3381   1.408       .  A
C3380      H3385   1.080       .  S
C3381      C3382   1.427       .  A
C3382      C3383   1.526       .  S
C3383      F3387   1.385       .  S
C3383      F3388   1.380       .  S
C3383      F3389   1.381       .  S
C3386      F3390   1.385       .  S
C3386      F3391   1.383       .  S
C3386      F3392   1.384       .  S
C3393      C3394   1.403       .  A
C3393      C3398   1.403       .  A
C3393      H3400   1.081       .  S
C3394      C3395   1.429       .  A
C3395      C3396   1.405       .  A
C3395      C3402   1.526       .  S
C3396      C3397   1.404       .  A
C3396      H3401   1.082       .  S
C3397      C3398   1.428       .  A
C3398      C3399   1.524       .  S
C3399      F3403   1.385       .  S
C3399      F3404   1.382       .  S
C3399      F3405   1.384       .  S
C3402      F3406   1.383       .  S
C3402      F3407   1.380       .  S
C3402      F3408   1.386       .  S
C3409      C3410   1.407       .  A
C3409      C3414   1.409       .  A
C3409      H3416   1.083       .  S
C3411      C3412   1.406       .  A
C3411      C3418   1.525       .  S
C3412      H3417   1.081       .  S
C3413      C3414   1.423       .  A
C3414      C3415   1.519       .  S
C3415      F3419   1.384       .  S
C3415      F3421   1.384       .  S
C3418      F3422   1.384       .  S
C3418      F3424   1.385       .  S
C3425      C3426   1.402       .  A
C3425      C3430   1.404       .  A
C3425      H3432   1.083       .  S
C3427      C3428   1.409       .  A
C3427      C3434   1.522       .  S
C3428      H3433   1.083       .  S
C3429      C3430   1.421       .  A
C3430      C3431   1.520       .  S
C3431      F3435   1.385       .  S
C3431      F3437   1.382       .  S
C3434      F3438   1.384       .  S
C3434      F3440   1.384       .  S
C3441      C3446   1.409       .  A
C3441      H3448   1.083       .  S
C3442      C3443   1.421       .  A
C3443      C3444   1.412       .  A
C3443      C3450   1.521       .  S
C3444      C3445   1.408       .  A
C3444      H3449   1.083       .  S
C3446      C3447   1.521       .  S
C3447      F3451   1.385       .  S
C3447      F3452   1.382       .  S
C3447      F3453   1.382       .  S
C3450      F3454   1.384       .  S
C3450      F3455   1.383       .  S
C3450      F3456   1.385       .  S
C3457      C3458   1.407       .  A
C3457      C3462   1.406       .  A
C3457      H3464   1.082       .  S
C3459      C3460   1.403       .  A
C3459      C3466   1.523       .  S
C3460      H3465   1.078       .  S
C3461      C3462   1.424       .  A
C3462      C3463   1.522       .  S
C3463      F3469   1.381       .  S
C3466      F3470   1.383       .  S
C3473      C4674   1.403       .  A
C3473      C3478   1.407       .  A
C3473      H3480   1.082       .  S
C3474      C4352   1.491       .  S
C3474      C4673   1.403   1_545  A
C3474      C3475   1.422       .  A
C3475      C3476   1.406       .  A
C3475      C3482   1.516       .  S
C3476      C3477   1.403       .  A
C3476      H3481   1.083       .  S
C3477      C4678   1.425   1_545  A
C3478      C4677   1.425       .  A
C3478      C3479   1.520       .  S
C3479      F4683   1.386       .  S
C3479      F4684   1.382       .  S
C3479      F3485   1.383       .  S
C3482      F3486   1.384       .  S
C3482      F4687   1.379       .  S
C3482      F4688   1.385       .  S
F3483      C4679   1.385       .  S
F3484      C4679   1.382       .  S
F3487      C4682   1.381       .  S
F3488      C4682   1.384       .  S
C3489      C3490   1.404   1_545  A
C3489      C3494   1.408       .  A
C3489      H3496   1.083       .  S
C3490      C4691   1.423       .  A
C3491      C4690   1.424       .  A
C3491      C3492   1.412       .  A
C3491      C3498   1.523       .  S
C3492      C4693   1.405       .  A
C3492      H3497   1.083       .  S
C3493      C4351   1.482       .  S
C3493      C4692   1.401       .  A
C3493      C3494   1.421   1_565  A
C3494      C3495   1.522       .  S
C3495      F3499   1.384       .  S
C3495      F3500   1.383       .  S
C3495      F3501   1.383       .  S
C3498      F3502   1.384       .  S
C3498      F3503   1.382       .  S
C3498      F3504   1.384       .  S
C3505      C4706   1.406       .  A
C3505      C3510   1.413       .  A
C3505      H3512   1.084       .  S
C3506      C4705   1.406       .  A
C3506      C3507   1.417   1_565  A
C3507      C3508   1.402       .  A
C3507      C3514   1.520       .  S
C3508      C3509   1.398   1_545  A
C3508      H3513   1.076       .  S
C3509      C4321   1.477       .  S
C3509      C4710   1.415       .  A
C3510      C4709   1.418       .  A
C3510      C3511   1.518       .  S
C3511      F3515   1.384       .  S
C3511      F4716   1.384       .  S
C3511      F3517   1.383       .  S
C3514      F3518   1.382       .  S
C3514      F4719   1.381       .  S
C3514      F3520   1.385       .  S
F3516      C4711   1.384       .  S
F3519      C4714   1.380       .  S
C3521      C4722   1.402       .  A
C3521      C3526   1.406       .  A
C3521      H3528   1.076       .  S
C3522      C4721   1.406   1_545  A
C3522      C3523   1.423       .  A
C3523      C3524   1.407       .  A
C3523      C3530   1.522       .  S
C3524      C3525   1.405   1_545  A
C3524      H3529   1.081       .  S
C3525      C4320   1.497       .  S
C3525      C4726   1.425       .  A
C3526      C4725   1.426       .  A
C3526      C3527   1.524       .  S
C3527      F3531   1.382       .  S
C3527      F3532   1.383       .  S
C3527      F4733   1.379       .  S
C3530      F4734   1.382       .  S
C3530      F3535   1.384       .  S
C3530      F3536   1.385       .  S
F3533      C4727   1.380       .  S
F3534      C4730   1.381       .  S
C3537      C3538   1.399       .  A
C3537      C3542   1.406       .  A
C3537      H3544   1.080       .  S
C3539      C3540   1.411       .  A
C3539      C3546   1.519       .  S
C3540      H3545   1.083       .  S
C3541      C3542   1.421       .  A
C3542      C3543   1.515       .  S
C3543      F3547   1.386       .  S
C3543      F3548   1.383       .  S
C3543      F3549   1.381       .  S
C3546      F3550   1.382       .  S
C3546      F3551   1.382       .  S
C3546      F3552   1.385       .  S
C3553      C3554   1.401       .  A
C3553      C3558   1.406       .  A
C3553      H3560   1.082       .  S
C3555      C3556   1.407       .  A
C3555      C3562   1.517       .  S
C3556      H3561   1.083       .  S
C3557      C3558   1.416       .  A
C3558      C3559   1.519       .  S
C3559      F3563   1.386       .  S
C3559      F3564   1.382       .  S
C3559      F3565   1.381       .  S
C3562      F3566   1.383       .  S
C3562      F3567   1.380       .  S
C3562      F3568   1.384       .  S
C3569      C3570   1.402       .  A
C3569      C3574   1.408       .  A
C3569      H3576   1.083       .  S
C3571      C3572   1.399       .  A
C3571      C3578   1.512       .  S
C3572      H3577   1.084       .  S
C3573      C3574   1.420       .  A
C3574      C3575   1.515       .  S
C3575      F3579   1.385       .  S
C3575      F3580   1.383       .  S
C3575      F3581   1.383       .  S
C3578      F3582   1.384       .  S
C3578      F3583   1.381       .  S
C3578      F3584   1.385       .  S
C3585      C3590   1.409       .  A
C3585      H3592   1.083       .  S
C3586      C3587   1.420       .  A
C3587      C3588   1.408       .  A
C3587      C3594   1.519       .  S
C3588      C3589   1.402       .  A
C3588      H3593   1.083       .  S
C3590      C3591   1.520       .  S
C3591      F3595   1.382       .  S
C3591      F3596   1.383       .  S
C3591      F3597   1.382       .  S
C3594      F3598   1.384       .  S
C3594      F3599   1.382       .  S
C3594      F3600   1.385       .  S
O3601      C3612   1.291       .  A
O3601     Eu3637   2.462       .  S
O3602      C3613   1.290       .  A
O3602     Eu3636   2.456       .  S
O3603      C3614   1.290       .  A
O3603     Eu3609   2.448       .  S
O3604      C3615   1.289       .  A
O3605      C3615   1.295       .  A
O3605     Eu3639   2.472   1_554  S
O3606      C3614   1.289       .  A
O3606     Eu3638   2.457       .  S
O3607      C3613   1.290       .  A
O3607     Eu4209   2.453       .  S
O3608      C3612   1.292       .  A
O3608     Eu3609   2.469       .  S
Eu3609     O4207   2.465   1_554  S
Eu3609     O3611   2.355       .  S
Eu3609     O4217   2.355   1_554  S
O3610     Eu4239   2.348       .  S
O3611     Eu3637   2.355       .  S
O3611     Eu3638   2.350       .  S
C3612      C4189   1.478       .  S
C3613      C4141   1.467       .  S
C3614      C4061   1.493       .  S
C3615      C4029   1.501       .  S
H3616      O3617   0.966       .  S
O3617     Eu4209   2.358       .  S
O3617     Eu4238   2.358       .  S
O3617     Eu3636   2.364       .  S
H3618      O3619   0.966       .  S
O3619     Eu3639   2.352   1_554  S
O3620      C3643   1.293       .  A
O3621      C3644   1.291       .  A
O3622      C3645   1.286       .  A
O3622     Eu4238   2.446       .  S
O3623      C3646   1.286       .  A
O3623     Eu4239   2.440       .  S
O3624      C3647   1.286       .  A
O3624     Eu3639   2.445   1_554  S
O3625      C3648   1.292       .  A
O3625     Eu3638   2.466       .  S
O3626      C3649   1.291       .  A
O3626     Eu3640   2.467       .  S
O3627      C3650   1.293       .  A
O3628      C3649   1.292       .  A
O3629      C3650   1.290       .  A
O3630      C3645   1.296       .  A
O3630     Eu3636   2.483       .  S
O3631      C3648   1.293       .  A
O3631     Eu3637   2.475       .  S
O3632      C3647   1.296       .  A
O3633      C3646   1.296       .  A
O3634      C3643   1.295       .  A
O3634     Eu4240   2.484       .  S
O3635      C3644   1.294       .  A
O3635     Eu3640   2.477   1_554  S
Eu3638     O4222   2.454   1_554  S
Eu3638     O4217   2.363   1_554  S
Eu3639     O4223   2.457       .  S
Eu3639     O4210   2.348       .  S
Eu3640     O4234   2.478       .  S
Eu3640     O3652   2.353   1_556  S
Eu3640     O4242   2.355       .  S
O3642     Eu4240   2.348       .  S
C3643      C4154   1.487       .  S
C3644      C4170   1.486       .  S
C3645      C4090   1.499       .  S
C3646      C4077   1.494       .  S
C3647      C4122   1.498       .  S
C3648      C4106   1.480       .  S
C3649      C4042   1.494       .  S
C3650      C4013   1.502       .  S
H3651      O3652   0.966       .  S
H3653      O3654   0.965       .  S
O3655      C3666   1.291       .  A
O3655     Eu3691   2.466       .  S
O3656      C3667   1.289       .  A
O3656     Eu3690   2.456       .  S
O3657      C3668   1.295       .  A
O3657     Eu3663   2.479       .  S
O3658      C3669   1.296       .  A
O3659      C3669   1.283       .  A
O3659     Eu3693   2.429       .  S
O3660      C3668   1.290       .  A
O3660     Eu3692   2.459       .  S
O3661      C3667   1.290       .  A
O3661     Eu3663   2.453       .  S
O3662      C3666   1.292       .  A
O3662     Eu3663   2.468       .  S
Eu3663     O3665   2.351       .  S
Eu3663     O3671   2.359       .  S
O3664     Eu3693   2.351       .  S
O3665     Eu3691   2.346       .  S
O3665     Eu3692   2.353       .  S
C3666      C4186   1.479       .  S
C3667      C4138   1.466       .  S
C3668      C3914   1.486       .  S
C3669      C3882   1.495       .  S
H3670      O3671   0.966       .  S
O3671     Eu3692   2.354       .  S
O3671     Eu3690   2.348       .  S
H3672      O3673   0.966       .  S
O3673     Eu3693   2.360       .  S
O3674      C3697   1.292       .  A
O3674     Eu3690   2.469       .  S
O3675      C3698   1.290       .  A
O3675     Eu3691   2.458       .  S
O3676      C3699   1.292       .  A
O3676     Eu3692   2.455       .  S
O3677      C3700   1.296       .  A
O3677     Eu3693   2.479       .  S
O3678      C3701   1.293       .  A
O3678     Eu3693   2.466       .  S
O3679      C3702   1.287       .  A
O3679     Eu3692   2.452       .  S
O3680      C3703   1.287       .  A
O3680     Eu3694   2.441       .  S
O3681      C3704   1.292       .  A
O3682      C3703   1.295       .  A
O3682     Eu3692   2.477       .  S
O3683      C3704   1.289       .  A
O3683     Eu3693   2.458       .  S
O3684      C3699   1.284       .  A
O3684     Eu3690   2.436       .  S
O3685      C3702   1.294       .  A
O3685     Eu3691   2.468       .  S
O3686      C3701   1.292       .  A
O3687      C3700   1.283       .  A
O3688      C3697   1.291       .  A
O3688     Eu3694   2.465       .  S
O3689      C3698   1.292       .  A
O3689     Eu3694   2.459       .  S
Eu3690     O3696   2.347       .  S
Eu3691     O3706   2.355       .  S
Eu3692     O3706   2.353       .  S
Eu3692     O3696   2.349       .  S
Eu3693     O3695   2.350       .  S
Eu3693     O3708   2.346       .  S
Eu3694     O3706   2.364       .  S
Eu3694     O3696   2.356       .  S
C3697      C4157   1.479       .  S
C3698      C4173   1.482       .  S
C3699      C3981   1.498       .  S
C3700      C3994   1.497       .  S
C3701      C3946   1.495       .  S
C3702      C3962   1.499       .  S
C3703      C3930   1.487       .  S
C3704      C3898   1.488       .  S
H3705      O3706   0.964       .  S
H3707      O3708   0.966       .  S
O3709      C3720   1.286   1_545  A
O3709     Eu3745   2.448   1_545  S
O3710      C3721   1.294       .  A
O3710     Eu3744   2.478       .  S
O3711      C3722   1.292       .  A
O3711     Eu3717   2.466       .  S
O3712      C3723   1.289       .  A
O3713      C3723   1.291       .  A
O3713     Eu3747   2.462       .  S
O3714      C3722   1.291       .  A
O3714     Eu3746   2.459       .  S
O3715      C3721   1.291       .  A
O3715     Eu3717   2.466       .  S
O3716      C3720   1.296       .  A
O3716     Eu3717   2.484       .  S
Eu3717     O3719   2.356       .  S
Eu3717     O3725   2.358       .  S
O3718     Eu3747   2.366       .  S
O3719     Eu3745   2.349       .  S
O3719     Eu3746   2.354       .  S
C3722      C3834   1.480       .  S
C3723      C3818   1.466       .  S
H3724      O3725   0.965       .  S
O3725     Eu3746   2.363       .  S
O3725     Eu3744   2.357       .  S
H3726      O3727   0.965       .  S
O3727     Eu3747   2.356       .  S
O3728      C3751   1.291       .  A
O3728     Eu3744   2.459       .  S
O3729      C3752   1.287       .  A
O3729     Eu3745   2.449   1_545  S
O3730      C3753   1.291       .  A
O3730     Eu3746   2.462       .  S
O3731      C3754   1.293       .  A
O3731     Eu3747   2.471       .  S
O3732      C3755   1.295       .  A
O3732     Eu3747   2.479       .  S
O3733      C3756   1.294       .  A
O3733     Eu3746   2.475       .  S
O3734      C3757   1.291       .  A
O3734     Eu3748   2.462       .  S
O3735      C3758   1.291       .  A
O3736      C3757   1.291       .  A
O3736     Eu3746   2.464       .  S
O3737      C3758   1.293       .  A
O3737     Eu3747   2.473       .  S
O3738      C3753   1.293       .  A
O3738     Eu3744   2.466       .  S
O3739      C3756   1.287       .  A
O3739     Eu3745   2.446       .  S
O3740      C3755   1.287       .  A
O3741      C3754   1.291       .  A
O3742      C3751   1.292       .  A
O3742     Eu3748   2.465       .  S
O3743      C3752   1.296       .  A
O3743     Eu3748   2.483   1_545  S
Eu3744     O3750   2.360       .  S
Eu3745     O3760   2.349       .  S
Eu3746     O3760   2.353       .  S
Eu3746     O3750   2.356       .  S
Eu3747     O3749   2.352       .  S
Eu3747     O3762   2.354       .  S
Eu3748     O3760   2.356       .  S
Eu3748     O3750   2.359       .  S
C3753      C3933   1.488       .  S
C3754      C3917   1.490       .  S
C3755      C3885   1.499       .  S
C3756      C3901   1.490       .  S
C3757      C3850   1.474       .  S
C3758      C3866   1.485       .  S
H3759      O3760   0.968       .  S
H3761      O3762   0.966       .  S
O3763      C3774   1.292       .  A
O3763     Eu3799   2.456       .  S
O3764      C3775   1.288       .  A
O3764     Eu3798   2.455       .  S
O3765      C3776   1.285       .  A
O3765     Eu4371   2.444   1_554  S
O3766      C3777   1.294       .  A
O3766     Eu3771   2.466       .  S
O3767      C3777   1.284       .  A
O3767     Eu3801   2.436       .  S
O3768      C3776   1.292       .  A
O3768     Eu3800   2.459       .  S
O3769      C3775   1.292       .  A
O3769     Eu3771   2.455       .  S
O3770      C3774   1.290       .  A
O3770     Eu3771   2.459       .  S
Eu3771     O4365   2.442       .  S
Eu3771     O3781   2.347       .  S
Eu3771     O4373   2.354       .  S
Eu3771     O3772   2.344       .  S
Eu3771     O4379   2.359       .  S
O3772     Eu3801   2.350       .  S
O3772     Eu3798   2.355       .  S
O3773     Eu4371   2.349   1_554  S
O3773     Eu4399   2.342   1_554  S
O3773     Eu3800   2.344       .  S
C3774      C4658   1.488       .  S
C3775      C4645   1.491       .  S
C3776      C3965   1.494       .  S
C3777      C3978   1.500       .  S
H3778      O3779   0.963       .  S
O3779     Eu4371   2.356   1_554  S
O3779     Eu3800   2.359       .  S
O3779     Eu4398   2.356       .  S
H3780      O3781   0.966       .  S
O3781     Eu3799   2.356       .  S
O3781     Eu3801   2.345       .  S
O3782      C3805   1.292       .  A
O3782     Eu3798   2.460       .  S
O3783      C3806   1.292       .  A
O3783     Eu3799   2.473       .  S
O3784      C3807   1.289       .  A
O3784     Eu3800   2.448       .  S
O3785      C3808   1.292       .  A
O3785     Eu3801   2.470       .  S
O3786      C3809   1.296       .  A
O3786     Eu3801   2.482       .  S
O3787      C3810   1.293       .  A
O3787     Eu3800   2.472       .  S
O3788      C3811   1.293       .  A
O3788     Eu4402   2.465       .  S
O3789      C3812   1.295       .  A
O3789     Eu3802   2.474       .  S
O3790      C3811   1.291       .  A
O3790     Eu3800   2.466       .  S
O3791      C3812   1.283       .  A
O3791     Eu3801   2.429       .  S
O3792      C3807   1.293       .  A
O3792     Eu4398   2.470       .  S
O3793      C3810   1.288       .  A
O3793     Eu4399   2.446   1_554  S
O3794      C3809   1.286       .  A
O3794     Eu3799   2.436       .  S
O3795      C3808   1.289       .  A
O3795     Eu3798   2.451       .  S
O3796      C3805   1.292       .  A
O3796     Eu3802   2.469       .  S
O3797      C3806   1.293       .  A
O3797     Eu3802   2.461       .  S
Eu3798     O4392   2.469       .  S
Eu3798     O4379   2.354       .  S
Eu3798     O3816   2.359       .  S
Eu3798     O4404   2.342       .  S
Eu3799     O4393   2.450       .  S
Eu3799     O4373   2.349       .  S
Eu3799     O3803   2.352       .  S
Eu3799     O4414   2.347       .  S
Eu3800     O3814   2.350       .  S
Eu3800     O3804   2.351       .  S
Eu3801     O3803   2.349       .  S
Eu3801     O3816   2.358       .  S
Eu3802     O4388   2.454       .  S
Eu3802     O3803   2.349       .  S
Eu3802     O4414   2.360       .  S
Eu3802     O3816   2.347       .  S
Eu3802     O4404   2.354       .  S
O3804     Eu4398   2.348       .  S
O3804     Eu4402   2.349       .  S
C3805      C4610   1.496       .  S
C3806      C4626   1.499       .  S
C3807      C3837   1.478       .  S
C3808      C3853   1.472       .  S
C3809      C3869   1.482       .  S
C3810      C3821   1.470       .  S
C3811      C3949   1.496       .  S
C3812      C3997   1.497       .  S
H3813      O3814   0.966       .  S
O3814     Eu4399   2.355   1_554  S
O3814     Eu4402   2.363       .  S
H3815      O3816   0.966       .  S
C3817      C3818   1.401       .  A
C3817      C3822   1.406       .  A
C3817      H3824   1.084       .  S
C3818      C3819   1.414       .  A
C3819      C3820   1.404       .  A
C3819      C3826   1.519       .  S
C3820      C3821   1.400       .  A
C3820      H3825   1.081       .  S
C3821      C3822   1.415       .  A
C3822      C3823   1.517       .  S
C3823      F3827   1.385       .  S
C3823      F3828   1.382       .  S
C3823      F3829   1.382       .  S
C3826      F3830   1.381       .  S
C3826      F3831   1.383       .  S
C3826      F3832   1.385       .  S
C3833      C3834   1.404       .  A
C3833      C3838   1.408       .  A
C3833      H3840   1.083       .  S
C3834      C3835   1.417       .  A
C3835      C3836   1.407       .  A
C3835      C3842   1.519       .  S
C3836      C3837   1.403       .  A
C3836      H3841   1.084       .  S
C3837      C3838   1.418       .  A
C3838      C3839   1.521       .  S
C3839      F3843   1.384       .  S
C3839      F3844   1.383       .  S
C3839      F3845   1.383       .  S
C3842      F3846   1.384       .  S
C3842      F3847   1.382       .  S
C3842      F3848   1.383       .  S
C3849      C3850   1.402       .  A
C3849      C3854   1.407       .  A
C3849      H3856   1.083       .  S
C3850      C3851   1.416       .  A
C3851      C3852   1.408       .  A
C3851      C3858   1.519       .  S
C3852      C3853   1.402       .  A
C3852      H3857   1.083       .  S
C3853      C3854   1.415       .  A
C3854      C3855   1.518       .  S
C3855      F3859   1.383       .  S
C3855      F3860   1.382       .  S
C3855      F3861   1.383       .  S
C3858      F3862   1.383       .  S
C3858      F3863   1.382       .  S
C3858      F3864   1.385       .  S
C3865      C3866   1.405       .  A
C3865      C3870   1.410       .  A
C3865      H3872   1.083       .  S
C3866      C3867   1.417       .  A
C3867      C3868   1.404       .  A
C3867      C3874   1.514       .  S
C3868      C3869   1.400       .  A
C3868      H3873   1.084       .  S
C3869      C3870   1.422       .  A
C3870      C3871   1.521       .  S
C3871      F3875   1.385       .  S
C3871      F3876   1.383       .  S
C3871      F3877   1.383       .  S
C3874      F3878   1.382       .  S
C3874      F3879   1.384       .  S
C3874      F3880   1.384       .  S
C3881      C3882   1.403       .  A
C3881      C3886   1.406       .  A
C3881      H3888   1.083       .  S
C3882      C3883   1.427       .  A
C3883      C3884   1.408       .  A
C3883      C3890   1.524       .  S
C3884      C3885   1.403       .  A
C3884      H3889   1.077       .  S
C3885      C3886   1.425       .  A
C3886      C3887   1.517       .  S
C3887      F3891   1.384       .  S
C3887      F3892   1.384       .  S
C3887      F3893   1.379       .  S
C3890      F3894   1.383       .  S
C3890      F3895   1.383       .  S
C3890      F3896   1.384       .  S
C3897      C3898   1.404       .  A
C3897      C3902   1.408       .  A
C3897      H3904   1.083       .  S
C3898      C3899   1.420       .  A
C3899      C3900   1.408       .  A
C3899      C3906   1.521       .  S
C3900      C3901   1.405       .  A
C3900      H3905   1.083       .  S
C3901      C3902   1.424       .  A
C3902      C3903   1.523       .  S
C3903      F3907   1.385       .  S
C3903      F3908   1.383       .  S
C3903      F3909   1.382       .  S
C3906      F3910   1.382       .  S
C3906      F3911   1.384       .  S
C3906      F3912   1.385       .  S
C3913      C3914   1.401       .  A
C3913      C3918   1.407       .  A
C3913      H3920   1.083       .  S
C3914      C3915   1.421       .  A
C3915      C3916   1.412       .  A
C3915      C3922   1.521       .  S
C3916      C3917   1.405       .  A
C3916      H3921   1.083       .  S
C3917      C3918   1.420       .  A
C3918      C3919   1.515       .  S
C3919      F3923   1.382       .  S
C3919      F3924   1.381       .  S
C3919      F3925   1.384       .  S
C3922      F3926   1.384       .  S
C3922      F3927   1.380       .  S
C3922      F3928   1.385       .  S
C3929      C3930   1.403       .  A
C3929      C3934   1.407       .  A
C3929      H3936   1.083       .  S
C3930      C3931   1.423       .  A
C3931      C3932   1.408       .  A
C3931      C3938   1.522       .  S
C3932      C3933   1.405       .  A
C3932      H3937   1.083       .  S
C3933      C3934   1.421       .  A
C3934      C3935   1.520       .  S
C3935      F3939   1.385       .  S
C3935      F3940   1.383       .  S
C3935      F3941   1.382       .  S
C3938      F3942   1.383       .  S
C3938      F3943   1.381       .  S
C3938      F3944   1.385       .  S
C3945      C3946   1.406       .  A
C3945      C3950   1.409       .  A
C3945      H3952   1.083       .  S
C3946      C3947   1.422       .  A
C3947      C3948   1.411       .  A
C3947      C3954   1.520       .  S
C3948      C3949   1.406       .  A
C3948      H3953   1.083       .  S
C3949      C3950   1.422       .  A
C3950      C3951   1.519       .  S
C3951      F3955   1.384       .  S
C3951      F3956   1.381       .  S
C3951      F3957   1.383       .  S
C3954      F3958   1.383       .  S
C3954      F3959   1.384       .  S
C3954      F3960   1.384       .  S
C3961      C3962   1.406       .  A
C3961      C3966   1.405       .  A
C3961      H3968   1.077       .  S
C3962      C3963   1.426       .  A
C3963      C3964   1.408       .  A
C3963      C3970   1.523       .  S
C3964      C3965   1.407       .  A
C3964      H3969   1.082       .  S
C3965      C3966   1.424       .  A
C3966      C3967   1.526       .  S
C3967      F3971   1.381       .  S
C3967      F3972   1.377       .  S
C3967      F3973   1.384       .  S
C3970      F3974   1.383       .  S
C3970      F3975   1.383       .  S
C3970      F3976   1.385       .  S
C3977      C3978   1.408       .  A
C3977      C3982   1.406       .  A
C3977      H3984   1.081       .  S
C3978      C3979   1.428       .  A
C3979      C3980   1.404       .  A
C3979      C3986   1.526       .  S
C3980      C3981   1.406       .  A
C3980      H3985   1.080       .  S
C3981      C3982   1.426       .  A
C3982      C3983   1.525       .  S
C3983      F3987   1.385       .  S
C3983      F3988   1.384       .  S
C3983      F3989   1.383       .  S
C3986      F3990   1.386       .  S
C3986      F3991   1.383       .  S
C3986      F3992   1.383       .  S
C3993      C3994   1.405       .  A
C3993      C3998   1.407       .  A
C3993      H4000   1.082       .  S
C3994      C3995   1.429       .  A
C3995      C3996   1.405       .  A
C3995      C4002   1.525       .  S
C3996      C3997   1.405       .  A
C3996      H4001   1.082       .  S
C3997      C3998   1.428       .  A
C3998      C3999   1.525       .  S
C3999      F4003   1.385       .  S
C3999      F4004   1.382       .  S
C3999      F4005   1.384       .  S
C4002      F4006   1.383       .  S
C4002      F4007   1.380       .  S
C4002      F4008   1.385       .  S
C4009      C4010   1.408       .  A
C4009      C4014   1.411       .  A
C4009      H4016   1.083       .  S
C4010      C4405   1.496       .  S
C4010      C4611   1.424   1_554  A
C4011      C4610   1.422       .  A
C4011      C4012   1.408       .  A
C4011      C4018   1.521       .  S
C4012      C4613   1.406       .  A
C4012      H4017   1.082       .  S
C4013      C4612   1.406   1_554  A
C4013      C4014   1.425       .  A
C4014      C4015   1.521       .  S
C4015      F4019   1.383       .  S
C4015      F4620   1.381       .  S
C4015      F4021   1.384       .  S
C4018      F4022   1.383       .  S
C4018      F4623   1.383       .  S
C4018      F4024   1.385       .  S
F4020      C4615   1.380       .  S
F4023      C4618   1.384   1_554  S
C4025      C4026   1.408   1_554  A
C4025      C4030   1.410       .  A
C4025      H4032   1.082       .  S
C4026      C4406   1.496       .  S
C4026      C4627   1.422       .  A
C4027      C4626   1.423       .  A
C4027      C4028   1.411       .  A
C4027      C4034   1.521       .  S
C4028      C4629   1.409       .  A
C4028      H4033   1.083       .  S
C4029      C4628   1.408   1_554  A
C4029      C4030   1.426       .  A
C4030      C4031   1.523       .  S
C4031      F4035   1.386       .  S
C4031      F4636   1.383       .  S
C4031      F4037   1.383       .  S
C4034      F4038   1.383       .  S
C4034      F4639   1.383       .  S
C4034      F4040   1.385       .  S
F4036      C4631   1.383       .  S
F4039      C4634   1.384       .  S
C4041      C4642   1.408       .  A
C4041      C4046   1.409       .  A
C4041      H4048   1.082       .  S
C4042      C4641   1.408   1_556  A
C4042      C4043   1.422       .  A
C4043      C4044   1.407       .  A
C4043      C4050   1.519       .  S
C4044      C4045   1.405   1_556  A
C4044      H4049   1.083       .  S
C4045      C4375   1.490       .  S
C4045      C4646   1.422       .  A
C4046      C4645   1.423       .  A
C4046      C4047   1.523       .  S
C4047      F4051   1.384       .  S
C4047      F4052   1.384       .  S
C4047      F4053   1.382       .  S
C4050      F4054   1.382       .  S
C4050      F4055   1.382       .  S
C4050      F4056   1.386       .  S
C4057      C4058   1.405   1_556  A
C4057      C4062   1.406       .  A
C4057      H4064   1.075       .  S
C4058      C4374   1.498       .  S
C4058      C4659   1.422       .  A
C4059      C4658   1.420       .  A
C4059      C4060   1.407       .  A
C4059      C4066   1.521       .  S
C4060      C4661   1.406       .  A
C4060      H4065   1.081       .  S
C4061      C4660   1.406       .  A
C4061      C4062   1.422   1_554  A
C4062      C4063   1.522       .  S
C4063      F4667   1.383       .  S
C4063      F4668   1.384       .  S
C4063      F4069   1.382   1_556  S
C4066      F4070   1.384       .  S
C4066      F4671   1.383       .  S
C4066      F4672   1.385       .  S
F4067      C4663   1.385       .  S
F4068      C4663   1.383       .  S
F4071      C4666   1.383       .  S
F4072      C4666   1.385       .  S
C4073      C4078   1.410       .  A
C4073      H4080   1.083       .  S
C4074      C4075   1.426       .  A
C4075      C4076   1.409       .  A
C4075      C4082   1.519       .  S
C4076      C4077   1.403       .  A
C4076      H4081   1.083       .  S
C4078      C4079   1.521       .  S
C4079      F4085   1.383       .  S
C4082      F4086   1.383       .  S
C4089      C4090   1.407       .  A
C4089      C4094   1.408       .  A
C4089      H4096   1.081       .  S
C4091      C4092   1.409       .  A
C4091      C4098   1.522       .  S
C4092      H4097   1.083       .  S
C4093      C4094   1.422       .  A
C4094      C4095   1.523       .  S
C4095      F4099   1.384       .  S
C4095      F4100   1.383       .  S
C4095      F4101   1.384       .  S
C4098      F4102   1.383       .  S
C4098      F4103   1.382       .  S
C4098      F4104   1.384       .  S
C4105      C4110   1.411       .  A
C4105      H4112   1.084       .  S
C4106      C4107   1.415       .  A
C4107      C4108   1.407       .  A
C4107      C4114   1.519       .  S
C4108      C4109   1.400       .  A
C4108      H4113   1.075       .  S
C4110      C4111   1.518       .  S
C4111      F4115   1.385       .  S
C4111      F4117   1.382       .  S
C4114      F4118   1.382       .  S
C4114      F4120   1.385       .  S
C4121      C4126   1.408       .  A
C4121      H4128   1.077       .  S
C4122      C4123   1.426       .  A
C4123      C4124   1.409       .  A
C4123      C4130   1.524       .  S
C4124      C4125   1.405       .  A
C4124      H4129   1.082       .  S
C4126      C4127   1.523       .  S
C4127      F4131   1.381       .  S
C4127      F4132   1.383       .  S
C4130      F4135   1.384       .  S
C4130      F4136   1.385       .  S
C4137      C4138   1.399       .  A
C4137      C4142   1.402       .  A
C4137      H4144   1.084       .  S
C4139      C4140   1.411       .  A
C4139      C4146   1.520       .  S
C4140      H4145   1.083       .  S
C4141      C4142   1.413       .  A
C4142      C4143   1.516       .  S
C4143      F4147   1.384       .  S
C4143      F4148   1.380       .  S
C4143      F4149   1.380       .  S
C4146      F4150   1.382       .  S
C4146      F4151   1.381       .  S
C4146      F4152   1.384       .  S
C4153      C4154   1.406       .  A
C4153      C4158   1.413       .  A
C4153      H4160   1.083       .  S
C4155      C4156   1.410       .  A
C4155      C4162   1.517       .  S
C4156      H4161   1.083       .  S
C4157      C4158   1.415       .  A
C4158      C4159   1.519       .  S
C4159      F4163   1.384       .  S
C4159      F4164   1.383       .  S
C4159      F4165   1.384       .  S
C4162      F4166   1.383       .  S
C4162      F4167   1.382       .  S
C4162      F4168   1.384       .  S
C4169      C4170   1.402       .  A
C4169      C4174   1.411       .  A
C4169      H4176   1.083       .  S
C4171      C4172   1.403       .  A
C4171      C4178   1.512       .  S
C4172      H4177   1.084       .  S
C4173      C4174   1.418       .  A
C4174      C4175   1.512       .  S
C4175      F4179   1.383       .  S
C4175      F4180   1.382       .  S
C4175      F4181   1.383       .  S
C4178      F4182   1.383       .  S
C4178      F4183   1.383       .  S
C4178      F4184   1.383       .  S
C4185      C4190   1.410       .  A
C4185      H4192   1.084       .  S
C4186      C4187   1.418       .  A
C4187      C4188   1.409       .  A
C4187      C4194   1.518       .  S
C4188      C4189   1.403       .  A
C4188      H4193   1.084       .  S
C4190      C4191   1.520       .  S
C4191      F4195   1.383       .  S
C4191      F4196   1.382       .  S
C4191      F4197   1.383       .  S
C4194      F4198   1.384       .  S
C4194      F4199   1.382       .  S
C4194      F4200   1.385       .  S
O4201      C4212   1.288       .  A
O4201     Eu4237   2.449       .  S
O4202      C4213   1.292       .  A
O4202     Eu4236   2.463       .  S
O4203      C4214   1.293       .  A
O4203     Eu4209   2.468       .  S
O4204      C4215   1.291       .  A
O4205      C4215   1.292       .  A
O4205     Eu4239   2.461       .  S
O4206      C4214   1.289       .  A
O4206     Eu4238   2.458       .  S
O4207      C4213   1.291       .  A
O4208      C4212   1.292       .  A
O4208     Eu4209   2.466       .  S
Eu4209     O4211   2.352       .  S
O4211     Eu4237   2.359       .  S
O4211     Eu4238   2.354       .  S
C4212      C4789   1.478       .  S
C4213      C4741   1.485       .  S
C4214      C4661   1.493       .  S
C4215      C4629   1.498       .  S
H4216      O4217   0.966       .  S
O4217     Eu4236   2.361       .  S
H4218      O4219   0.966       .  S
O4219     Eu4239   2.351       .  S
O4220      C4243   1.292       .  A
O4221      C4244   1.290       .  A
O4222      C4245   1.289       .  A
O4223      C4246   1.289       .  A
O4224      C4247   1.283       .  A
O4224     Eu4239   2.429       .  S
O4225      C4248   1.290       .  A
O4225     Eu4238   2.455       .  S
O4226      C4249   1.291       .  A
O4226     Eu4240   2.470       .  S
O4227      C4250   1.293       .  A
O4228      C4249   1.291       .  A
O4229      C4250   1.288       .  A
O4230      C4245   1.296       .  A
O4230     Eu4236   2.485       .  S
O4231      C4248   1.293       .  A
O4231     Eu4237   2.466       .  S
O4232      C4247   1.296       .  A
O4233      C4246   1.295       .  A
O4234      C4243   1.294       .  A
O4235      C4244   1.292       .  A
O4235     Eu4240   2.462       .  S
Eu4240     O4252   2.356       .  S
C4243      C4754   1.479       .  S
C4244      C4770   1.479       .  S
C4245      C4690   1.492       .  S
C4246      C4677   1.498       .  S
C4247      C4722   1.494       .  S
C4248      C4706   1.474       .  S
C4249      C4642   1.494       .  S
C4250      C4613   1.496       .  S
H4251      O4252   0.966       .  S
H4253      O4254   0.965       .  S
O4255      C4266   1.291       .  A
O4255     Eu4291   2.463       .  S
O4256      C4267   1.294       .  A
O4256     Eu4290   2.473       .  S
O4257      C4268   1.294       .  A
O4257     Eu4263   2.474       .  S
O4258      C4269   1.297       .  A
O4259      C4269   1.283       .  A
O4259     Eu4293   2.430       .  S
O4260      C4268   1.291       .  A
O4260     Eu4292   2.463       .  S
O4261      C4267   1.289       .  A
O4261     Eu4263   2.451       .  S
O4262      C4266   1.291       .  A
O4262     Eu4263   2.458       .  S
Eu4263     O4265   2.357       .  S
Eu4263     O4271   2.363       .  S
O4264     Eu4293   2.353       .  S
O4265     Eu4291   2.345       .  S
O4265     Eu4292   2.356       .  S
C4266      C4786   1.483       .  S
C4267      C4738   1.481       .  S
C4268      C4514   1.486       .  S
C4269      C4482   1.497       .  S
H4270      O4271   0.966       .  S
O4271     Eu4292   2.353       .  S
O4271     Eu4290   2.349       .  S
H4272      O4273   0.966       .  S
O4273     Eu4293   2.361       .  S
O4274      C4297   1.292       .  A
O4274     Eu4290   2.468       .  S
O4275      C4298   1.287       .  A
O4275     Eu4291   2.440       .  S
O4276      C4299   1.290       .  A
O4276     Eu4292   2.445       .  S
O4277      C4300   1.299       .  A
O4277     Eu4293   2.494       .  S
O4278      C4301   1.294       .  A
O4278     Eu4293   2.471       .  S
O4279      C4302   1.285       .  A
O4279     Eu4292   2.443       .  S
O4280      C4303   1.291       .  A
O4280     Eu4294   2.462       .  S
O4281      C4304   1.294       .  A
O4282      C4303   1.294       .  A
O4282     Eu4292   2.469       .  S
O4283      C4304   1.290       .  A
O4283     Eu4293   2.458       .  S
O4284      C4299   1.285       .  A
O4284     Eu4290   2.445       .  S
O4285      C4302   1.293       .  A
O4285     Eu4291   2.462       .  S
O4286      C4301   1.293       .  A
O4287      C4300   1.283       .  A
O4288      C4297   1.293       .  A
O4288     Eu4294   2.471       .  S
O4289      C4298   1.294       .  A
O4289     Eu4294   2.471       .  S
Eu4290     O4296   2.347       .  S
Eu4291     O4306   2.349       .  S
Eu4292     O4306   2.348       .  S
Eu4292     O4296   2.348       .  S
Eu4293     O4295   2.351       .  S
Eu4293     O4308   2.347       .  S
Eu4294     O4306   2.359       .  S
Eu4294     O4296   2.360       .  S
C4297      C4757   1.479       .  S
C4298      C4773   1.479       .  S
C4299      C4581   1.499       .  S
C4300      C4594   1.501       .  S
C4301      C4546   1.492       .  S
C4302      C4562   1.499       .  S
C4303      C4530   1.489       .  S
C4304      C4498   1.485       .  S
H4305      O4306   0.964       .  S
H4307      O4308   0.966       .  S
O4309      C4320   1.287       .  A
O4309     Eu4345   2.452       .  S
O4310      C4321   1.292       .  A
O4310     Eu4344   2.466       .  S
O4311      C4322   1.288       .  A
O4311     Eu4317   2.449       .  S
O4312      C4323   1.292       .  A
O4313      C4323   1.288       .  A
O4313     Eu4347   2.446       .  S
O4314      C4322   1.293       .  A
O4314     Eu4346   2.471       .  S
O4315      C4321   1.290       .  A
O4315     Eu4317   2.460       .  S
O4316      C4320   1.293       .  A
O4316     Eu4317   2.467       .  S
Eu4317     O4319   2.351       .  S
Eu4317     O4325   2.357       .  S
O4318     Eu4347   2.364       .  S
O4319     Eu4345   2.341       .  S
O4319     Eu4346   2.348       .  S
C4322      C4434   1.477       .  S
C4323      C4418   1.468       .  S
H4324      O4325   0.966       .  S
O4325     Eu4346   2.360       .  S
O4325     Eu4344   2.358       .  S
H4326      O4327   0.964       .  S
O4327     Eu4347   2.358       .  S
O4328      C4351   1.287       .  A
O4328     Eu4344   2.441       .  S
O4329      C4352   1.289       .  A
O4329     Eu4345   2.455   1_545  S
O4330      C4353   1.289       .  A
O4330     Eu4346   2.455       .  S
O4331      C4354   1.293       .  A
O4331     Eu4347   2.473       .  S
O4332      C4355   1.294       .  A
O4332     Eu4347   2.470       .  S
O4333      C4356   1.291       .  A
O4333     Eu4346   2.454       .  S
O4334      C4357   1.292       .  A
O4334     Eu4348   2.469       .  S
O4335      C4358   1.293       .  A
O4336      C4357   1.293       .  A
O4336     Eu4346   2.476       .  S
O4337      C4358   1.289       .  A
O4337     Eu4347   2.456       .  S
O4338      C4353   1.294       .  A
O4338     Eu4344   2.469       .  S
O4339      C4356   1.289       .  A
O4339     Eu4345   2.456       .  S
O4340      C4355   1.287       .  A
O4341      C4354   1.292       .  A
O4342      C4351   1.294       .  A
O4342     Eu4348   2.470       .  S
O4343      C4352   1.293       .  A
O4343     Eu4348   2.464   1_545  S
Eu4344     O4350   2.362       .  S
Eu4345     O4360   2.347       .  S
Eu4346     O4360   2.353       .  S
Eu4346     O4350   2.357       .  S
Eu4347     O4349   2.353       .  S
Eu4347     O4362   2.353       .  S
Eu4348     O4360   2.356       .  S
Eu4348     O4350   2.358       .  S
C4353      C4533   1.487       .  S
C4354      C4517   1.488       .  S
C4355      C4485   1.499       .  S
C4356      C4501   1.481       .  S
C4357      C4450   1.481       .  S
C4358      C4466   1.482       .  S
H4359      O4360   0.968       .  S
H4361      O4362   0.965       .  S
O4363      C4374   1.294       .  A
O4363     Eu4399   2.467   1_554  S
O4364      C4375   1.289       .  A
O4364     Eu4398   2.459       .  S
O4365      C4376   1.285       .  A
O4366      C4377   1.293       .  A
O4366     Eu4371   2.462       .  S
O4367      C4377   1.285       .  A
O4367     Eu4401   2.442       .  S
O4368      C4376   1.295       .  A
O4368     Eu4400   2.473       .  S
O4369      C4375   1.292       .  A
O4369     Eu4371   2.457   1_554  S
O4370      C4374   1.289       .  A
O4370     Eu4371   2.458   1_554  S
Eu4371     O4381   2.348       .  S
Eu4371     O4372   2.347       .  S
O4372     Eu4401   2.352       .  S
O4372     Eu4398   2.358   1_556  S
O4373     Eu4400   2.348       .  S
C4376      C4565   1.500       .  S
C4377      C4578   1.500       .  S
H4378      O4379   0.964       .  S
O4379     Eu4400   2.350       .  S
H4380      O4381   0.966       .  S
O4381     Eu4399   2.355       .  S
O4381     Eu4401   2.349       .  S
O4382      C4405   1.293       .  A
O4382     Eu4398   2.463       .  S
O4383      C4406   1.290       .  A
O4383     Eu4399   2.468       .  S
O4384      C4407   1.290       .  A
O4384     Eu4400   2.457       .  S
O4385      C4408   1.291       .  A
O4385     Eu4401   2.462       .  S
O4386      C4409   1.293       .  A
O4386     Eu4401   2.472       .  S
O4387      C4410   1.289       .  A
O4387     Eu4400   2.449       .  S
O4388      C4411   1.291       .  A
O4389      C4412   1.297       .  A
O4389     Eu4402   2.484   1_556  S
O4390      C4411   1.290       .  A
O4390     Eu4400   2.461       .  S
O4391      C4412   1.283       .  A
O4391     Eu4401   2.432       .  S
O4392      C4407   1.292       .  A
O4393      C4410   1.289       .  A
O4394      C4409   1.288       .  A
O4394     Eu4399   2.447       .  S
O4395      C4408   1.292       .  A
O4395     Eu4398   2.465   1_556  S
O4396      C4405   1.287       .  A
O4396     Eu4402   2.447       .  S
O4397      C4406   1.290       .  A
O4397     Eu4402   2.442   1_556  S
Eu4398     O4416   2.355   1_554  S
Eu4399     O4403   2.351       .  S
Eu4400     O4414   2.356       .  S
Eu4400     O4404   2.350       .  S
Eu4401     O4403   2.348       .  S
Eu4401     O4416   2.356       .  S
Eu4402     O4403   2.351   1_554  S
Eu4402     O4416   2.346   1_554  S
C4407      C4437   1.482       .  S
C4408      C4453   1.475       .  S
C4409      C4469   1.482       .  S
C4410      C4421   1.465       .  S
C4411      C4549   1.484       .  S
C4412      C4597   1.502       .  S
H4413      O4414   0.966       .  S
H4415      O4416   0.966       .  S
C4417      C4418   1.402       .  A
C4417      C4422   1.406       .  A
C4417      H4424   1.083       .  S
C4418      C4419   1.415       .  A
C4419      C4420   1.403       .  A
C4419      C4426   1.517       .  S
C4420      C4421   1.399       .  A
C4420      H4425   1.082       .  S
C4421      C4422   1.413       .  A
C4422      C4423   1.518       .  S
C4423      F4427   1.384       .  S
C4423      F4428   1.383       .  S
C4423      F4429   1.382       .  S
C4426      F4430   1.378       .  S
C4426      F4431   1.383       .  S
C4426      F4432   1.385       .  S
C4433      C4434   1.400       .  A
C4433      C4438   1.405       .  A
C4433      H4440   1.084       .  S
C4434      C4435   1.418       .  A
C4435      C4436   1.410       .  A
C4435      C4442   1.518       .  S
C4436      C4437   1.404       .  A
C4436      H4441   1.084       .  S
C4437      C4438   1.418       .  A
C4438      C4439   1.516       .  S
C4439      F4443   1.385       .  S
C4439      F4444   1.379       .  S
C4439      F4445   1.383       .  S
C4442      F4446   1.383       .  S
C4442      F4447   1.382       .  S
C4442      F4448   1.383       .  S
C4449      C4450   1.401       .  A
C4449      C4454   1.407       .  A
C4449      H4456   1.083       .  S
C4450      C4451   1.419       .  A
C4451      C4452   1.410       .  A
C4451      C4458   1.515       .  S
C4452      C4453   1.402       .  A
C4452      H4457   1.083       .  S
C4453      C4454   1.413       .  A
C4454      C4455   1.516       .  S
C4455      F4459   1.383       .  S
C4455      F4460   1.382       .  S
C4455      F4461   1.383       .  S
C4458      F4462   1.382       .  S
C4458      F4463   1.382       .  S
C4458      F4464   1.386       .  S
C4465      C4466   1.401       .  A
C4465      C4470   1.405       .  A
C4465      H4472   1.084       .  S
C4466      C4467   1.419       .  A
C4467      C4468   1.407       .  A
C4467      C4474   1.513       .  S
C4468      C4469   1.400       .  A
C4468      H4473   1.083       .  S
C4469      C4470   1.418       .  A
C4470      C4471   1.512       .  S
C4471      F4475   1.385       .  S
C4471      F4476   1.384       .  S
C4471      F4477   1.382       .  S
C4474      F4478   1.381       .  S
C4474      F4479   1.384       .  S
C4474      F4480   1.385       .  S
C4481      C4482   1.405       .  A
C4481      C4486   1.409       .  A
C4481      H4488   1.083       .  S
C4482      C4483   1.428       .  A
C4483      C4484   1.406       .  A
C4483      C4490   1.526       .  S
C4484      C4485   1.403       .  A
C4484      H4489   1.077       .  S
C4485      C4486   1.424       .  A
C4486      C4487   1.519       .  S
C4487      F4491   1.383       .  S
C4487      F4492   1.384       .  S
C4487      F4493   1.379       .  S
C4490      F4494   1.383       .  S
C4490      F4495   1.383       .  S
C4490      F4496   1.383       .  S
C4497      C4498   1.404       .  A
C4497      C4502   1.407       .  A
C4497      H4504   1.083       .  S
C4498      C4499   1.420       .  A
C4499      C4500   1.407       .  A
C4499      C4506   1.518       .  S
C4500      C4501   1.402       .  A
C4500      H4505   1.084       .  S
C4501      C4502   1.418       .  A
C4502      C4503   1.519       .  S
C4503      F4507   1.384       .  S
C4503      F4508   1.380       .  S
C4503      F4509   1.382       .  S
C4506      F4510   1.382       .  S
C4506      F4511   1.381       .  S
C4506      F4512   1.386       .  S
C4513      C4514   1.400       .  A
C4513      C4518   1.407       .  A
C4513      H4520   1.083       .  S
C4514      C4515   1.420       .  A
C4515      C4516   1.414       .  A
C4515      C4522   1.517       .  S
C4516      C4517   1.405       .  A
C4516      H4521   1.083       .  S
C4517      C4518   1.416       .  A
C4518      C4519   1.511       .  S
C4519      F4523   1.383       .  S
C4519      F4524   1.385       .  S
C4519      F4525   1.382       .  S
C4522      F4526   1.384       .  S
C4522      F4527   1.382       .  S
C4522      F4528   1.384       .  S
C4529      C4530   1.405       .  A
C4529      C4534   1.408       .  A
C4529      H4536   1.083       .  S
C4530      C4531   1.422       .  A
C4531      C4532   1.408       .  A
C4531      C4538   1.520       .  S
C4532      C4533   1.404       .  A
C4532      H4537   1.083       .  S
C4533      C4534   1.420       .  A
C4534      C4535   1.520       .  S
C4535      F4539   1.385       .  S
C4535      F4540   1.382       .  S
C4535      F4541   1.382       .  S
C4538      F4542   1.382       .  S
C4538      F4543   1.383       .  S
C4538      F4544   1.385       .  S
C4545      C4546   1.408       .  A
C4545      C4550   1.410       .  A
C4545      H4552   1.083       .  S
C4546      C4547   1.422       .  A
C4547      C4548   1.408       .  A
C4547      C4554   1.519       .  S
C4548      C4549   1.403       .  A
C4548      H4553   1.083       .  S
C4549      C4550   1.419       .  A
C4550      C4551   1.522       .  S
C4551      F4555   1.384       .  S
C4551      F4556   1.383       .  S
C4551      F4557   1.382       .  S
C4554      F4558   1.382       .  S
C4554      F4559   1.381       .  S
C4554      F4560   1.386       .  S
C4561      C4562   1.406       .  A
C4561      C4566   1.405       .  A
C4561      H4568   1.078       .  S
C4562      C4563   1.426       .  A
C4563      C4564   1.407       .  A
C4563      C4570   1.524       .  S
C4564      C4565   1.407       .  A
C4564      H4569   1.078       .  S
C4565      C4566   1.426       .  A
C4566      C4567   1.524       .  S
C4567      F4571   1.385       .  S
C4567      F4572   1.383       .  S
C4567      F4573   1.383       .  S
C4570      F4574   1.383       .  S
C4570      F4575   1.384       .  S
C4570      F4576   1.385       .  S
C4577      C4578   1.409       .  A
C4577      C4582   1.406       .  A
C4577      H4584   1.081       .  S
C4578      C4579   1.427       .  A
C4579      C4580   1.405       .  A
C4579      C4586   1.526       .  S
C4580      C4581   1.408       .  A
C4580      H4585   1.080       .  S
C4581      C4582   1.426       .  A
C4582      C4583   1.525       .  S
C4583      F4587   1.385       .  S
C4583      F4588   1.383       .  S
C4583      F4589   1.382       .  S
C4586      F4590   1.386       .  S
C4586      F4591   1.383       .  S
C4586      F4592   1.384       .  S
C4593      C4594   1.404       .  A
C4593      C4598   1.408       .  A
C4593      H4600   1.082       .  S
C4594      C4595   1.430       .  A
C4595      C4596   1.408       .  A
C4595      C4602   1.524       .  S
C4596      C4597   1.405       .  A
C4596      H4601   1.082       .  S
C4597      C4598   1.430       .  A
C4598      C4599   1.523       .  S
C4599      F4603   1.385       .  S
C4599      F4604   1.382       .  S
C4599      F4605   1.384       .  S
C4602      F4606   1.383       .  S
C4602      F4607   1.382       .  S
C4602      F4608   1.385       .  S
C4609      C4610   1.408       .  A
C4609      C4614   1.411       .  A
C4609      H4616   1.083       .  S
C4611      C4612   1.406       .  A
C4611      C4618   1.526       .  S
C4612      H4617   1.076       .  S
C4613      C4614   1.424       .  A
C4614      C4615   1.522       .  S
C4615      F4619   1.383       .  S
C4615      F4621   1.384       .  S
C4618      F4622   1.384       .  S
C4618      F4624   1.384       .  S
C4625      C4626   1.408       .  A
C4625      C4630   1.409       .  A
C4625      H4632   1.082       .  S
C4627      C4628   1.407       .  A
C4627      C4634   1.522       .  S
C4628      H4633   1.082       .  S
C4629      C4630   1.423       .  A
C4630      C4631   1.522       .  S
C4631      F4635   1.385       .  S
C4631      F4637   1.382       .  S
C4634      F4638   1.384       .  S
C4634      F4640   1.384       .  S
C4641      C4646   1.409       .  A
C4641      H4648   1.083       .  S
C4642      C4643   1.421       .  A
C4643      C4644   1.406       .  A
C4643      C4650   1.520       .  S
C4644      C4645   1.405       .  A
C4644      H4649   1.083       .  S
C4646      C4647   1.522       .  S
C4647      F4651   1.384       .  S
C4647      F4652   1.383       .  S
C4647      F4653   1.382       .  S
C4650      F4654   1.382       .  S
C4650      F4655   1.383       .  S
C4650      F4656   1.385       .  S
C4657      C4658   1.404       .  A
C4657      C4662   1.406       .  A
C4657      H4664   1.082       .  S
C4659      C4660   1.406       .  A
C4659      C4666   1.516       .  S
C4660      H4665   1.082       .  S
C4661      C4662   1.423       .  A
C4662      C4663   1.520       .  S
C4663      F4669   1.381       .  S
C4666      F4670   1.383       .  S
C4673      C4678   1.408       .  A
C4673      H4680   1.082       .  S
C4674      C4675   1.423       .  A
C4675      C4676   1.410       .  A
C4675      C4682   1.519       .  S
C4676      C4677   1.406       .  A
C4676      H4681   1.083       .  S
C4678      C4679   1.520       .  S
C4679      F4685   1.383       .  S
C4682      F4686   1.384       .  S
C4689      C4690   1.405       .  A
C4689      C4694   1.410       .  A
C4689      H4696   1.083       .  S
C4691      C4692   1.407       .  A
C4691      C4698   1.520       .  S
C4692      H4697   1.084       .  S
C4693      C4694   1.420       .  A
C4694      C4695   1.521       .  S
C4695      F4699   1.385       .  S
C4695      F4700   1.382       .  S
C4695      F4701   1.384       .  S
C4698      F4702   1.383       .  S
C4698      F4703   1.382       .  S
C4698      F4704   1.385       .  S
C4705      C4710   1.411       .  A
C4705      H4712   1.084       .  S
C4706      C4707   1.416       .  A
C4707      C4708   1.405       .  A
C4707      C4714   1.524       .  S
C4708      C4709   1.401       .  A
C4708      H4713   1.073       .  S
C4710      C4711   1.518       .  S
C4711      F4715   1.384       .  S
C4711      F4717   1.382       .  S
C4714      F4718   1.382       .  S
C4714      F4720   1.383       .  S
C4721      C4726   1.410       .  A
C4721      H4728   1.077       .  S
C4722      C4723   1.425       .  A
C4723      C4724   1.407       .  A
C4723      C4730   1.524       .  S
C4724      C4725   1.406       .  A
C4724      H4729   1.080       .  S
C4726      C4727   1.523       .  S
C4727      F4731   1.381       .  S
C4727      F4732   1.384       .  S
C4730      F4735   1.384       .  S
C4730      F4736   1.385       .  S
C4737      C4738   1.402       .  A
C4737      C4742   1.408       .  A
C4737      H4744   1.082       .  S
C4739      C4740   1.411       .  A
C4739      C4746   1.519       .  S
C4740      H4745   1.084       .  S
C4741      C4742   1.419       .  A
C4742      C4743   1.520       .  S
C4743      F4747   1.385       .  S
C4743      F4748   1.384       .  S
C4743      F4749   1.382       .  S
C4746      F4750   1.382       .  S
C4746      F4751   1.383       .  S
C4746      F4752   1.384       .  S
C4753      C4754   1.403       .  A
C4753      C4758   1.409       .  A
C4753      H4760   1.083       .  S
C4755      C4756   1.407       .  A
C4755      C4762   1.514       .  S
C4756      H4761   1.084       .  S
C4757      C4758   1.416       .  A
C4758      C4759   1.518       .  S
C4759      F4763   1.385       .  S
C4759      F4764   1.382       .  S
C4759      F4765   1.382       .  S
C4762      F4766   1.384       .  S
C4762      F4767   1.380       .  S
C4762      F4768   1.384       .  S
C4769      C4770   1.402       .  A
C4769      C4774   1.408       .  A
C4769      H4776   1.083       .  S
C4771      C4772   1.401       .  A
C4771      C4778   1.513       .  S
C4772      H4777   1.084       .  S
C4773      C4774   1.422       .  A
C4774      C4775   1.520       .  S
C4775      F4779   1.385       .  S
C4775      F4780   1.383       .  S
C4775      F4781   1.383       .  S
C4778      F4782   1.384       .  S
C4778      F4783   1.383       .  S
C4778      F4784   1.383       .  S
C4785      C4790   1.408       .  A
C4785      H4792   1.084       .  S
C4786      C4787   1.418       .  A
C4787      C4788   1.405       .  A
C4787      C4794   1.516       .  S
C4788      C4789   1.401       .  A
C4788      H4793   1.084       .  S
C4790      C4791   1.520       .  S
C4791      F4795   1.384       .  S
C4791      F4796   1.382       .  S
C4791      F4797   1.382       .  S
C4794      F4798   1.384       .  S
C4794      F4799   1.380       .  S
C4794      F4800   1.385       .  S
