geometry optimzed in LAMMPS
_audit_creation_date              2020-11-30 
_audit_creation_method            'lammps2cif' 
_symmetry_space_group_name_H-M    'P1' 
_symmetry_Int_Tables_number       1 
_symmetry_cell_setting            triclinic 
loop_ 
_symmetry_equiv_pos_as_xyz 
  x,y,z 
_cell_length_a                    43.73995981 
_cell_length_b                    43.739419491683776 
_cell_length_c                    43.74245370813896 
_cell_angle_alpha                 89.97028236105221 
_cell_angle_beta                  89.98373168803714 
_cell_angle_gamma                 90.00989053034566 
loop_ 
_atom_site_label 
_atom_site_type_symbol 
_atom_site_fract_x 
_atom_site_fract_y 
_atom_site_fract_z 
_atom_site_charge 
O1          O  0.91327973  0.85941471  0.66905688    -0.83800
O2          O  0.87782190  0.91011690  0.65750303    -0.80900
C3          C  0.85647345  0.92595785  0.64648848     0.99600
O4          O  0.83113894  0.91395377  0.63943300    -0.80900
O5          O  0.84267212  0.87741669  0.58939031    -0.83500
C6          C  0.85328958  0.85552314  0.57402530     1.04200
O7          O  0.85925931  0.83011300  0.58646576    -0.76300
O8          O  0.90973672  0.84127794  0.62234472    -0.76500
C9          C  0.92543265  0.85232783  0.64378451     1.04100
O10         O  0.86314074  0.83358984  0.70329086    -0.83800
O11         O  0.83014166  0.88624756  0.69616694    -0.80900
C12         C  0.80335423  0.87663702  0.69113334     0.99700
O13         O  0.79638371  0.86472500  0.66591739    -0.80900
O14         O  0.80307099  0.83081470  0.61386264    -0.83500
C15         C  0.80731677  0.80425880  0.62443850     1.04100
O16         O  0.83230120  0.79702900  0.63669408    -0.76300
O17         O  0.88498370  0.80317466  0.66996481    -0.76500
C18         C  0.87510562  0.80831685  0.69662432     1.04100
Cr19       Cr  0.86990400  0.87103222  0.67886938     1.93700
Cr20       Cr  0.82093045  0.87052417  0.62845784     1.93200
Cr21       Cr  0.87028533  0.82055039  0.63002408     1.39100
O22         O  0.85380913  0.85414975  0.64570419    -1.21600
O23         O  0.66269399  0.90877661  0.87387750    -0.83800
O24         O  0.67331437  0.85820530  0.90971561    -0.80900
C25         C  0.64773703  0.85207068  0.92176398     0.99600
O26         O  0.62613235  0.84134621  0.90608116    -0.80900
O27         O  0.59040418  0.82963311  0.85562857    -0.83500
C28         C  0.57830823  0.85506564  0.84916617     1.04200
O29         O  0.59404952  0.87666003  0.83848178    -0.76300
O30         O  0.64457254  0.91249934  0.82716965    -0.76500
C31         C  0.65173788  0.92455798  0.85245170     1.04100
O32         O  0.70111052  0.88419209  0.82652935    -0.83800
O33         O  0.70717928  0.83146736  0.85981090    -0.80900
C34         C  0.69999402  0.80651599  0.87217074     0.99700
O35         O  0.67331419  0.80213483  0.88234542    -0.80900
O36         O  0.64026116  0.79558071  0.82962555    -0.83500
C37         C  0.62827687  0.80256515  0.80444099     1.04100
O38         O  0.61837834  0.82929335  0.79953334    -0.76300
O39         O  0.67073169  0.86286754  0.79277644    -0.76500
C40         C  0.69595962  0.87478682  0.79970474     1.04100
Cr41       Cr  0.68345676  0.86936689  0.86628844     1.93700
Cr42       Cr  0.63374223  0.81978969  0.86712285     1.93200
Cr43       Cr  0.63320959  0.86912553  0.81711008     1.39100
O44         O  0.65006528  0.85287577  0.85022670    -1.21600
O45         O  0.87768158  0.65983429  0.90636323    -0.83800
O46         O  0.91416901  0.67229960  0.85647104    -0.80900
C47         C  0.92639266  0.64710744  0.84927734     0.99600
O48         O  0.91074987  0.62574287  0.83803301    -0.80900
O49         O  0.86032860  0.59017785  0.82574722    -0.83500
C50         C  0.85330505  0.57765635  0.85086196     1.04200
O51         O  0.84216967  0.59297481  0.87252418    -0.76300
O52         O  0.83048045  0.64289763  0.90909408    -0.76500
C53         C  0.85574093  0.64921884  0.92168207     1.04100
O54         O  0.83075929  0.69926924  0.88248044    -0.83800
O55         O  0.86456294  0.70696288  0.83041580    -0.80900
C56         C  0.87663566  0.70046169  0.80513989     0.99700
O57         O  0.88674625  0.67389034  0.79991247    -0.80900
O58         O  0.83439763  0.64060730  0.79219502    -0.83500
C59         C  0.80924196  0.62828211  0.79864870     1.04100
O60         O  0.80408229  0.61798166  0.82515052    -0.76300
O61         O  0.79726368  0.67014100  0.85913316    -0.76500
C62         C  0.80422107  0.69493683  0.87191312     1.04100
Cr63       Cr  0.87063910  0.68200196  0.86758418     1.93700
Cr64       Cr  0.87174448  0.63374071  0.81660328     1.93200
Cr65       Cr  0.82112036  0.63229133  0.86534212     1.39100
O66         O  0.85460559  0.64923136  0.84992688    -1.21600
O67         O  0.59100156  0.64278768  0.66946546    -0.83800
O68         O  0.62721853  0.59276667  0.65713064    -0.80900
C69         C  0.64880994  0.57742723  0.64588167     0.99600
O70         O  0.67397357  0.58990888  0.63901026    -0.80900
O71         O  0.66162516  0.62644811  0.58923813    -0.83500
C72         C  0.65071986  0.64824591  0.57394287     1.04200
O73         O  0.64403930  0.67340289  0.58654341    -0.76300
O74         O  0.59394192  0.66100448  0.62272391    -0.76500
C75         C  0.57853506  0.64985862  0.64433857     1.04100
O76         O  0.64100650  0.66907920  0.70339345    -0.83800
O77         O  0.67476938  0.61698635  0.69569105    -0.80900
C78         C  0.70130286  0.62729464  0.69065587     0.99700
O79         O  0.70786402  0.63970404  0.66556782    -0.80900
O80         O  0.70029063  0.67373058  0.61372882    -0.83500
C81         C  0.69554320  0.70012310  0.62446878     1.04100
O82         O  0.67047773  0.70674547  0.63688973    -0.76300
O83         O  0.61820427  0.69919196  0.67039420    -0.76500
C84         C  0.62856028  0.69416729  0.69688975     1.04100
Cr85       Cr  0.63463170  0.63172683  0.67881916     1.93700
Cr86       Cr  0.68332592  0.63357727  0.62821399     1.93200
Cr87       Cr  0.63298806  0.68246797  0.63025118     1.39100
O88         O  0.65020566  0.64914191  0.64566913    -1.21600
O89         O  0.91064941  0.16103166  0.62273874    -0.83800
O90         O  0.86052099  0.17266665  0.58639586    -0.80900
C91         C  0.85341001  0.14736888  0.57433691     0.99600
O92         O  0.84233782  0.12599858  0.59012855    -0.80900
O93         O  0.83091385  0.09048401  0.64084588    -0.83500
C94         C  0.85628163  0.07833108  0.64763057     1.04200
O95         O  0.87780323  0.09401702  0.65854581    -0.76300
O96         O  0.91373382  0.14443321  0.67001263    -0.76500
C97         C  0.92612039  0.15048394  0.64459061     1.04100
O98         O  0.88630606  0.20053200  0.66963384    -0.83800
O99         O  0.83424698  0.20737202  0.63577351    -0.80900
C100        C  0.80901848  0.20053627  0.62381563     0.99700
O101        O  0.80388760  0.17378408  0.61414513    -0.80900
O102        O  0.79694211  0.14075652  0.66678120    -0.83500
C103        C  0.80366956  0.12858144  0.69193028     1.04100
O104        O  0.83026806  0.11845827  0.69687571    -0.76300
O105        O  0.86352716  0.17114133  0.70333777    -0.76500
C106        C  0.87578238  0.19617635  0.69621558     1.04100
Cr107      Cr  0.87163549  0.18280185  0.62982024     1.93700
Cr108      Cr  0.82113637  0.13392677  0.62927841     1.93200
Cr109      Cr  0.87017311  0.13328995  0.67957005     1.39100
O110        O  0.85439094  0.14991202  0.64610383    -1.21600
O111        O  0.87618001  0.41007942  0.83888586    -0.83800
O112        O  0.91267432  0.36014483  0.82699340    -0.80900
C113        C  0.92518830  0.35367636  0.85225328     0.99600
O114        O  0.90982272  0.34282683  0.87404039    -0.80900
O115        O  0.85991495  0.33063270  0.91043200    -0.83500
C116        C  0.85297413  0.35591399  0.92261317     1.04200
O117        O  0.84153359  0.37723901  0.90706171    -0.76300
O118        O  0.82932660  0.41295298  0.85681048    -0.76500
C119        C  0.85450308  0.42542927  0.84995975     1.04100
O120        O  0.82880994  0.38537129  0.80053804    -0.83800
O121        O  0.86269689  0.33315333  0.79350807    -0.80900
C122        C  0.87514295  0.30815551  0.80041304     0.99700
O123        O  0.88566267  0.30363900  0.82694933    -0.80900
O124        O  0.83365392  0.29616735  0.86078324    -0.83500
C125        C  0.80841150  0.30272485  0.87287561     1.04100
O126        O  0.80324705  0.32928819  0.88301819    -0.76300
O127        O  0.79573276  0.36270105  0.83069974    -0.76500
C128        C  0.80228041  0.37507941  0.80559192     1.04100
Cr129      Cr  0.86895144  0.37088294  0.81759679     1.93700
Cr130      Cr  0.87091954  0.32091422  0.86689672     1.93200
Cr131      Cr  0.82008497  0.36938959  0.86809086     1.39100
O132        O  0.85340147  0.35382646  0.85095893    -1.21600
O133        O  0.59032797  0.17223907  0.85593191    -0.83800
O134        O  0.62655377  0.16096587  0.90632508    -0.80900
C135        C  0.64820654  0.15008115  0.92186960     0.99600
O136        O  0.67340629  0.14312818  0.90947927    -0.80900
O137        O  0.66169506  0.09268337  0.87370627    -0.83500
C138        C  0.65088138  0.07693564  0.85220618     1.04200
O139        O  0.64388351  0.08907440  0.82690672    -0.76300
O140        O  0.59346677  0.12516345  0.83867916    -0.76500
C141        C  0.57793386  0.14698224  0.84922392     1.04100
O142        O  0.64016915  0.20590620  0.82910552    -0.83800
O143        O  0.67384454  0.19944218  0.88147657    -0.80900
C144        C  0.70047254  0.19447053  0.87140431     0.99700
O145        O  0.70721200  0.16930834  0.85926937    -0.80900
O146        O  0.70012271  0.11689563  0.82600898    -0.83500
C147        C  0.69512753  0.12701822  0.79940311     1.04100
O148        O  0.66989098  0.13898540  0.79262496    -0.76300
O149        O  0.61747699  0.17223312  0.79967049    -0.76500
C150        C  0.62775271  0.19884612  0.80415855     1.04100
Cr151      Cr  0.63387460  0.18200804  0.86692696     1.93700
Cr152      Cr  0.68296806  0.13179397  0.86595365     1.93200
Cr153      Cr  0.63250639  0.13252276  0.81709486     1.39100
O154        O  0.64966821  0.14866083  0.85011832    -1.21600
O155        O  0.67295045  0.35958321  0.58743220    -0.83800
O156        O  0.66078726  0.40965564  0.62351832    -0.80900
C157        C  0.64965846  0.42511702  0.64506736     0.99600
O158        O  0.64274203  0.41272485  0.67025317    -0.80900
O159        O  0.59301487  0.37617095  0.65764072    -0.83500
C160        C  0.57779518  0.35426010  0.64687444     1.04200
O161        O  0.59036418  0.32895930  0.64073892    -0.76300
O162        O  0.62637625  0.34096282  0.59057546    -0.76500
C163        C  0.64780877  0.35233618  0.57508691     1.04100
O164        O  0.70715568  0.33341710  0.63739749    -0.83800
O165        O  0.69933556  0.38542662  0.67116414    -0.80900
C166        C  0.69419886  0.37530634  0.69776343     0.99700
O167        O  0.66904755  0.36303766  0.70438163    -0.80900
O168        O  0.61708180  0.32911426  0.69676347    -0.83500
C169        C  0.62785204  0.30268165  0.69234102     1.04100
O170        O  0.64064335  0.29589165  0.66750225    -0.76300
O171        O  0.67415807  0.30301489  0.61502669    -0.76500
C172        C  0.70073209  0.30827335  0.62505195     1.04100
Cr173      Cr  0.68246036  0.37069618  0.63102597     1.93700
Cr174      Cr  0.63180194  0.36911121  0.67966552     1.93200
Cr175      Cr  0.63402191  0.31982071  0.62977124     1.39100
O176        O  0.64936953  0.35330851  0.64671548    -1.21600
O177        O  0.16172554  0.87760224  0.58963675    -0.83800
O178        O  0.17329575  0.91394804  0.63976849    -0.80900
C179        C  0.14794469  0.92631859  0.64609358     0.99600
O180        O  0.12620412  0.91091207  0.65697551    -0.80900
O181        O  0.09004049  0.86078165  0.66925148    -0.83500
C182        C  0.07783770  0.85358567  0.64405417     1.04200
O183        O  0.09351321  0.84249391  0.62263549    -0.76300
O184        O  0.14379616  0.83075285  0.58674946    -0.76500
C185        C  0.15053007  0.85597316  0.57427861     1.04100
O186        O  0.20030800  0.83040046  0.61440108    -0.83800
O187        O  0.20694616  0.86413573  0.66678743    -0.80900
C188        C  0.19989073  0.87643024  0.69181835     0.99700
O189        O  0.17336789  0.88702179  0.69619523    -0.80900
O190        O  0.13984945  0.83484295  0.70363659    -0.83500
C191        C  0.12790535  0.80954854  0.69702796     1.04100
O192        O  0.11794064  0.80429933  0.67041715    -0.76300
O193        O  0.17028251  0.79710256  0.63689172    -0.76500
C194        C  0.19537819  0.80379502  0.62454968     1.04100
Cr195      Cr  0.18295483  0.87037801  0.62896020     1.93700
Cr196      Cr  0.13354048  0.87206581  0.67889319     1.93200
Cr197      Cr  0.13269325  0.82130280  0.63033505     1.39100
O198        O  0.14962173  0.85466788  0.64595466    -1.21600
O199        O  0.34284552  0.87674585  0.90600925    -0.83800
O200        O  0.33029934  0.91334255  0.85629925    -0.80900
C201        C  0.35547081  0.92594267  0.84963008     0.99600
O202        O  0.37716163  0.91071873  0.83842990    -0.80900
O203        O  0.41351339  0.86094874  0.82566713    -0.83500
C204        C  0.42605073  0.85395088  0.85076550     1.04200
O205        O  0.41075376  0.84257944  0.87233679    -0.76300
O206        O  0.36083526  0.82991417  0.90854228    -0.76500
C207        C  0.35409942  0.85502708  0.92118131     1.04100
O208        O  0.30436916  0.82930128  0.88151969    -0.83800
O209        O  0.29663680  0.86333987  0.82955000    -0.80900
C210        C  0.30325235  0.87584903  0.80450276     0.99700
O211        O  0.32966501  0.88658347  0.79978018    -0.80900
O212        O  0.36350458  0.83469988  0.79179332    -0.83500
C213        C  0.37599339  0.80960797  0.79815133     1.04100
O214        O  0.38644013  0.80444349  0.82458514    -0.76300
O215        O  0.33437931  0.79649020  0.85832361    -0.76500
C216        C  0.30933793  0.80288965  0.87091041     1.04100
Cr217      Cr  0.32112787  0.86957701  0.86702147     1.93700
Cr218      Cr  0.36983805  0.87189709  0.81651303     1.93200
Cr219      Cr  0.37176735  0.82096266  0.86483742     1.39100
O220        O  0.35435000  0.85424289  0.84956326    -1.21600
O221        O  0.09121604  0.67348340  0.85586944    -0.83800
O222        O  0.12709094  0.66111311  0.90611031    -0.80900
C223        C  0.14862096  0.65006863  0.92166777     0.99600
O224        O  0.17387351  0.64323966  0.90937661    -0.80900
O225        O  0.16150019  0.59331830  0.87296674    -0.83500
C226        C  0.15064366  0.57804336  0.85112865     1.04200
O227        O  0.14441051  0.59059451  0.82581313    -0.76300
O228        O  0.09434154  0.62695472  0.83718558    -0.76500
C229        C  0.07884126  0.64839044  0.84851131     1.04100
O230        O  0.14139468  0.70756103  0.82998234    -0.83800
O231        O  0.17490538  0.69969152  0.88211417    -0.80900
C232        C  0.20148141  0.69465547  0.87189338     0.99700
O233        O  0.20812990  0.66949208  0.85968885    -0.80900
O234        O  0.20083964  0.61733663  0.82599231    -0.83500
C235        C  0.19657631  0.62805282  0.79950385     1.04100
O236        O  0.17170230  0.64069254  0.79254760    -0.76300
O237        O  0.11943864  0.67452135  0.79929577    -0.76500
C238        C  0.12938438  0.70110733  0.80468695     1.04100
Cr239      Cr  0.13480586  0.68283511  0.86719651     1.93700
Cr240      Cr  0.18347412  0.63218712  0.86584344     1.93200
Cr241      Cr  0.13377145  0.63432478  0.81633630     1.39100
O242        O  0.15055388  0.64970644  0.84988407    -1.21600
O243        O  0.36091555  0.59133784  0.66902561    -0.83800
O244        O  0.41083214  0.62790603  0.65706886    -0.80900
C245        C  0.42616058  0.64958894  0.64593211     0.99600
O246        O  0.41363530  0.67473204  0.63907170    -0.80900
O247        O  0.37784735  0.66245068  0.58885596    -0.83500
C248        C  0.35643452  0.65118435  0.57330784     1.04200
O249        O  0.33123588  0.64404012  0.58557399    -0.76300
O250        O  0.34334212  0.59403035  0.62206333    -0.76500
C251        C  0.35433172  0.57874573  0.64385153     1.04100
O252        O  0.33383637  0.64117052  0.70252838    -0.83800
O253        O  0.38597276  0.67519510  0.69540432    -0.80900
C254        C  0.37567507  0.70170389  0.69031320     0.99700
O255        O  0.36333224  0.70823845  0.66519939    -0.80900
O256        O  0.32997145  0.70072629  0.61288831    -0.83500
C257        C  0.30339057  0.69560263  0.62301594     1.04100
O258        O  0.29681182  0.67039057  0.63519633    -0.76300
O259        O  0.30423930  0.61834248  0.66907920    -0.76500
C260        C  0.30882620  0.62873866  0.69563869     1.04100
Cr261      Cr  0.37157566  0.63504557  0.67837400     1.93700
Cr262      Cr  0.37004027  0.68388440  0.62783365     1.93200
Cr263      Cr  0.32152463  0.63304800  0.62913165     1.39100
O264        O  0.35447987  0.65055905  0.64501226    -1.21600
O265        O  0.16126612  0.09368210  0.62244827    -0.83800
O266        O  0.17370647  0.14352990  0.58604976    -0.80900
C267        C  0.14850679  0.15040823  0.57368757     0.99600
O268        O  0.12697460  0.16160319  0.58914040    -0.80900
O269        O  0.09091768  0.17383359  0.63923100    -0.83500
C270        C  0.07845674  0.14868438  0.64623582     1.04200
O271        O  0.09382955  0.12714930  0.65758074    -0.76300
O272        O  0.14389913  0.09088680  0.66949520    -0.76500
C273        C  0.15028986  0.07839344  0.64422365     1.04100
O274        O  0.20030756  0.11777802  0.66958184    -0.83800
O275        O  0.20785224  0.16985919  0.63572498    -0.80900
C276        C  0.20123992  0.19500267  0.62343109     0.99700
O277        O  0.17464246  0.20009375  0.61332977    -0.80900
O278        O  0.14097267  0.20772775  0.66549026    -0.83500
C279        C  0.12867427  0.20119948  0.69064890     1.04100
O280        O  0.11851415  0.17464417  0.69580094    -0.76300
O281        O  0.17079156  0.14087294  0.70291302    -0.76500
C282        C  0.19574771  0.12831261  0.69608745     1.04100
Cr283      Cr  0.18317024  0.13254673  0.62961799     1.93700
Cr284      Cr  0.13452850  0.18319705  0.62813006     1.93200
Cr285      Cr  0.13307608  0.13453110  0.67882583     1.39100
O286        O  0.15015809  0.15001862  0.64543532    -1.21600
O287        O  0.33041920  0.41393923  0.64009990    -0.83800
O288        O  0.34206941  0.37772110  0.58989657    -0.80900
C289        C  0.35317582  0.35614589  0.57441448     0.99600
O290        O  0.36017928  0.33095630  0.58680816    -0.80900
O291        O  0.41024457  0.34272027  0.62306695    -0.83500
C292        C  0.42571239  0.35365183  0.64470472     1.04200
O293        O  0.41334365  0.36054398  0.66989053    -0.76300
O294        O  0.37742254  0.41083930  0.65751300    -0.76500
C295        C  0.35575145  0.42631604  0.64658192     1.04100
O296        O  0.29665323  0.36387281  0.66681635    -0.83800
O297        O  0.30353621  0.33035346  0.61436793    -0.80900
C298        C  0.30856168  0.30369304  0.62432685     0.99700
O299        O  0.33362684  0.29700883  0.63668975    -0.80900
O300        O  0.38564795  0.30424808  0.67053431    -0.83500
C301        C  0.37544406  0.30933992  0.69709259     1.04100
O302        O  0.36333100  0.33454376  0.70373721    -0.76300
O303        O  0.33001302  0.38686277  0.69633958    -0.76500
C304        C  0.30355137  0.37619854  0.69185933     1.04100
Cr305      Cr  0.32076935  0.37033324  0.62911384     1.93700
Cr306      Cr  0.37112183  0.32136071  0.63043024     1.93200
Cr307      Cr  0.36987497  0.37188064  0.67924139     1.39100
O308        O  0.35403267  0.35460884  0.64613616    -1.21600
O309        O  0.40997181  0.12713164  0.83741431    -0.83800
O310        O  0.35997977  0.09054583  0.82652637    -0.80900
C311        C  0.35379462  0.07815724  0.85193002     0.99600
O312        O  0.34291670  0.09353866  0.87369560    -0.80900
O313        O  0.33052126  0.14380170  0.90971799    -0.83500
C314        C  0.35580408  0.15076954  0.92186364     1.04200
O315        O  0.37729066  0.16167980  0.90614453    -0.76300
O316        O  0.41298097  0.17382466  0.85570153    -0.76500
C317        C  0.42543045  0.14875498  0.84842907     1.04100
O318        O  0.38463281  0.17427650  0.79926371    -0.83800
O319        O  0.33248391  0.14023804  0.79295206    -0.80900
C320        C  0.30765645  0.12759734  0.80007440     0.99700
O321        O  0.30345966  0.11706810  0.82664668    -0.80900
O322        O  0.29617311  0.16952668  0.85981608    -0.83500
C323        C  0.30281964  0.19482475  0.87173355     1.04100
O324        O  0.32934354  0.19993233  0.88202155    -0.76300
O325        O  0.36265294  0.20746371  0.82978357    -0.76500
C326        C  0.37464338  0.20086531  0.80452207     1.04100
Cr327      Cr  0.37047182  0.13418762  0.81665773     1.93700
Cr328      Cr  0.32086545  0.13231723  0.86630655     1.93200
Cr329      Cr  0.36942134  0.18308002  0.86712651     1.39100
O330        O  0.35372722  0.14977074  0.85012808    -1.21600
O331        O  0.14353132  0.32962200  0.90897034    -0.83800
O332        O  0.09317996  0.34221026  0.87325142    -0.80900
C333        C  0.07761784  0.35351015  0.85183846     0.99600
O334        O  0.08989169  0.36056457  0.82661077    -0.80900
O335        O  0.12639646  0.41046570  0.83885689    -0.83500
C336        C  0.14819973  0.42570308  0.84984802     1.04200
O337        O  0.17339459  0.41309716  0.85637752    -0.76300
O338        O  0.16158543  0.37642178  0.90623918    -0.76500
C339        C  0.15050630  0.35470883  0.92156310     1.04100
O340        O  0.16946472  0.29624281  0.85835216    -0.83800
O341        O  0.11704955  0.30404324  0.82521475    -0.80900
C342        C  0.12728411  0.30917144  0.79867432     0.99700
O343        O  0.13959537  0.33432538  0.79217221    -0.80900
O344        O  0.17342310  0.38631456  0.79970014    -0.83500
C345        C  0.19992467  0.37573173  0.80420099     1.04100
O346        O  0.20680759  0.36322803  0.82916223    -0.76300
O347        O  0.19975581  0.32911337  0.88109147    -0.76500
C348        C  0.19468988  0.30271888  0.87050884     1.04100
Cr349      Cr  0.13212853  0.32065577  0.86532621     1.93700
Cr350      Cr  0.13347332  0.37156950  0.81693491     1.93200
Cr351      Cr  0.18275703  0.36935045  0.86691623     1.39100
O352        O  0.14933947  0.35397448  0.84984646    -1.21600
O353        O  0.85990122  0.91376980  0.32594644    -0.83800
O354        O  0.90983386  0.87749395  0.33775829    -0.80900
C355        C  0.92536147  0.85593242  0.34878017     0.99600
O356        O  0.91301444  0.83074454  0.35586701    -0.80900
O357        O  0.87736291  0.84304577  0.40627340    -0.83500
C358        C  0.85595054  0.85427882  0.42186391     1.04200
O359        O  0.83068950  0.86124250  0.40966222    -0.76300
O360        O  0.84284261  0.91103085  0.37308296    -0.76500
C361        C  0.85378932  0.92629273  0.35127028     1.04100
O362        O  0.83283252  0.86376590  0.29267722    -0.83800
O363        O  0.88510010  0.82991906  0.29969811    -0.80900
C364        C  0.87500499  0.80335451  0.30494505     0.99700
O365        O  0.86272605  0.79686637  0.33012040    -0.80900
O366        O  0.82945911  0.80456588  0.38259189    -0.83500
C367        C  0.80273103  0.80972296  0.37285735     1.04100
O368        O  0.79607790  0.83479404  0.36042465    -0.76300
O369        O  0.80339759  0.88674414  0.32617705    -0.76500
C370        C  0.80789611  0.87631494  0.29959649     1.04100
Cr371      Cr  0.87060814  0.87007600  0.31665186     1.93700
Cr372      Cr  0.86946967  0.82142263  0.36738135     1.93200
Cr373      Cr  0.82084361  0.87212625  0.36614169     1.39100
O374        O  0.85370377  0.85458882  0.35012987    -1.21600
O375        O  0.84226959  0.62815789  0.08940472    -0.83800
O376        O  0.83066321  0.59156160  0.13932764    -0.80900
C377        C  0.85599359  0.57911739  0.14566097     0.99600
O378        O  0.87776304  0.59448266  0.15651521    -0.80900
O379        O  0.91390694  0.64452925  0.16909316    -0.83500
C380        C  0.92618222  0.65170069  0.14391864     1.04200
O381        O  0.91058215  0.66280856  0.12244806    -0.76300
O382        O  0.86034391  0.67495786  0.08658996    -0.76500
C383        C  0.85350885  0.64979240  0.07408400     1.04100
O384        O  0.80382856  0.67540608  0.11439249    -0.83800
O385        O  0.79708414  0.64137057  0.16653336    -0.80900
C386        C  0.80407193  0.62878196  0.19143264     0.99700
O387        O  0.83057223  0.61813409  0.19575032    -0.80900
O388        O  0.86406638  0.67030478  0.20343341    -0.83500
C389        C  0.87622198  0.69553818  0.19694985     1.04100
O390        O  0.88630157  0.70085471  0.17038243    -0.76300
O391        O  0.83401316  0.70848839  0.13694225    -0.76500
C392        C  0.80881371  0.70190845  0.12477099     1.04100
Cr393      Cr  0.82106467  0.63525611  0.12870791     1.93700
Cr394      Cr  0.87041243  0.63320100  0.17859243     1.93200
Cr395      Cr  0.87149543  0.68415379  0.13021978     1.39100
O396        O  0.85442855  0.65078684  0.14572333    -1.21600
O397        O  0.58993983  0.83130988  0.13975159    -0.83800
O398        O  0.62575246  0.84342164  0.08952888    -0.80900
C399        C  0.64726687  0.85432628  0.07386000     0.99600
O400        O  0.67261886  0.86100680  0.08602116    -0.80900
O401        O  0.66049613  0.91110318  0.12222947    -0.83500
C402        C  0.64974124  0.92652632  0.14401267     1.04200
O403        O  0.64345590  0.91411625  0.16939994    -0.76300
O404        O  0.59322958  0.87786851  0.15831883    -0.76500
C405        C  0.57766844  0.85649308  0.14695396     1.04100
O406        O  0.64000651  0.79709949  0.16568270    -0.83800
O407        O  0.67354687  0.80466154  0.11353692    -0.80900
C408        C  0.70013884  0.80962559  0.12377894     0.99700
O409        O  0.70686008  0.83484518  0.13582837    -0.80900
O410        O  0.69980656  0.88719933  0.16923883    -0.83500
C411        C  0.69558561  0.87659948  0.19578223     1.04100
O412        O  0.67067184  0.86407911  0.20287122    -0.76300
O413        O  0.61828923  0.83027455  0.19640180    -0.76500
C414        C  0.62815591  0.80363543  0.19103583     1.04100
Cr415      Cr  0.63347873  0.82174952  0.12843255     1.93700
Cr416      Cr  0.68233076  0.87220723  0.12950223     1.93200
Cr417      Cr  0.63268805  0.87043648  0.17913456     1.39100
O418        O  0.64936967  0.85487335  0.14561188    -1.21600
O419        O  0.66265506  0.62700123  0.40614267    -0.83800
O420        O  0.67442117  0.59071268  0.35610170    -0.80900
C421        C  0.64909684  0.57817920  0.34992232     0.99600
O422        O  0.62731422  0.59343305  0.33891894    -0.80900
O423        O  0.59088527  0.64317069  0.32598721    -0.83500
C424        C  0.57837655  0.65006284  0.35109584     1.04200
O425        O  0.59372174  0.66131637  0.37266354    -0.76300
O426        O  0.64360673  0.67342566  0.40905277    -0.76500
C427        C  0.65110021  0.64841427  0.42151412     1.04100
O428        O  0.70066876  0.67455023  0.38147922    -0.83800
O429        O  0.70771116  0.64090652  0.32906090    -0.80900
C430        C  0.70089717  0.62825415  0.30415945     0.99700
O431        O  0.67448666  0.61741448  0.29978454    -0.80900
O432        O  0.64064121  0.66947568  0.29198319    -0.83500
C433        C  0.62851600  0.69472217  0.29853268     1.04100
O434        O  0.61842072  0.69993962  0.32513190    -0.76300
O435        O  0.67014250  0.70770391  0.35945002    -0.76500
C436        C  0.69526822  0.70124232  0.37183445     1.04100
Cr437      Cr  0.68372674  0.63443720  0.36684241     1.93700
Cr438      Cr  0.63450550  0.63222402  0.31680922     1.93200
Cr439      Cr  0.63280600  0.68295406  0.36540275     1.39100
O440        O  0.65026117  0.64983313  0.34980135    -1.21600
O441        O  0.64299786  0.17466897  0.08712590    -0.83800
O442        O  0.59318269  0.16178905  0.12340971    -0.80900
C443        C  0.57788387  0.15040518  0.14496631     0.99600
O444        O  0.59037375  0.14356063  0.17011775    -0.80900
O445        O  0.62690996  0.09390354  0.15746424    -0.83500
C446        C  0.64856350  0.07878181  0.14604007     1.04200
O447        O  0.67373075  0.09142261  0.13944116    -0.76300
O448        O  0.66153145  0.12806732  0.08969845    -0.76500
C449        C  0.65008319  0.14965576  0.07446944     1.04100
O450        O  0.66930799  0.20839381  0.13723395    -0.83800
O451        O  0.61727641  0.20024767  0.17111513    -0.80900
C452        C  0.62749373  0.19509249  0.19765719     0.99700
O453        O  0.64009906  0.17006531  0.20407531    -0.80900
O454        O  0.67416786  0.11820984  0.19631567    -0.83500
C455        C  0.70061568  0.12885937  0.19162321     1.04100
O456        O  0.70728651  0.14134046  0.16656942    -0.76300
O457        O  0.69975204  0.17554822  0.11462455    -0.76500
C458        C  0.69449427  0.20204378  0.12489130     1.04100
Cr459      Cr  0.63204765  0.18364389  0.13086828     1.93700
Cr460      Cr  0.63405002  0.13279470  0.17936059     1.93200
Cr461      Cr  0.68294560  0.13521584  0.12893079     1.39100
O462        O  0.64960459  0.15047345  0.14629080    -1.21600
O463        O  0.59331738  0.37700620  0.33810235    -0.83800
O464        O  0.64336988  0.41352282  0.32695476    -0.80900
C465        C  0.64956434  0.42595415  0.35233037     0.99600
O466        O  0.66033500  0.41057438  0.37415343    -0.80900
O467        O  0.67306372  0.36048212  0.41036448    -0.83500
C468        C  0.64784971  0.35350208  0.42266563     1.04200
O469        O  0.62630985  0.34261526  0.40704216    -0.76300
O470        O  0.59038226  0.33047652  0.35690693    -0.76500
C471        C  0.57792537  0.35550667  0.34949826     1.04100
O472        O  0.61848060  0.32968812  0.30011320    -0.83800
O473        O  0.67078774  0.36366700  0.29350666    -0.80900
C474        C  0.69556457  0.37647405  0.30052657     0.99700
O475        O  0.69972451  0.38709419  0.32705481    -0.80900
O476        O  0.70728881  0.33469780  0.36040101    -0.83500
C477        C  0.70073576  0.30940484  0.37243224     1.04100
O478        O  0.67418469  0.30422138  0.38268476    -0.76300
O479        O  0.64034509  0.29651499  0.33075963    -0.76500
C480        C  0.62819623  0.30302361  0.30554401     1.04100
Cr481      Cr  0.63279926  0.36982409  0.31728636     1.93700
Cr482      Cr  0.68248743  0.37186833  0.36682673     1.93200
Cr483      Cr  0.63396680  0.32110493  0.36803797     1.39100
O484        O  0.64961338  0.35432854  0.35079490    -1.21600
O485        O  0.83071610  0.09096408  0.35622383    -0.83800
O486        O  0.84212224  0.12723556  0.40635445    -0.80900
C487        C  0.85327833  0.14873223  0.42189144     0.99600
O488        O  0.86035370  0.17395093  0.40956286    -0.80900
O489        O  0.91065088  0.16218084  0.37362396    -0.83500
C490        C  0.92627583  0.15112892  0.35215252     1.04200
O491        O  0.91405929  0.14409652  0.32692596    -0.76300
O492        O  0.87785810  0.09398042  0.33915784    -0.76500
C493        C  0.85607671  0.07854985  0.34993407     1.04100
O494        O  0.79720913  0.14099549  0.32916309    -0.83800
O495        O  0.80381758  0.17467402  0.38156601    -0.80900
C496        C  0.80891253  0.20128156  0.37148439     0.99700
O497        O  0.83413018  0.20792017  0.35938677    -0.80900
O498        O  0.88635338  0.20059441  0.32585598    -0.83500
C499        C  0.87632228  0.19544249  0.29923359     1.04100
O500        O  0.86434929  0.17016533  0.29257487    -0.76300
O501        O  0.83076062  0.11795080  0.29988441    -0.76500
C502        C  0.80424507  0.12859102  0.30418849     1.04100
Cr503      Cr  0.82108791  0.13461765  0.36703079     1.93700
Cr504      Cr  0.87156407  0.18352826  0.36595207     1.93200
Cr505      Cr  0.87058555  0.13287432  0.31725800     1.39100
O506        O  0.85452109  0.15026215  0.35019926    -1.21600
O507        O  0.90996973  0.37795860  0.15846258    -0.83800
O508        O  0.86019447  0.41451906  0.17012929    -0.80900
C509        C  0.85379365  0.42697164  0.14481792     0.99600
O510        O  0.84256509  0.41168919  0.12318421    -0.80900
O511        O  0.82985960  0.36183766  0.08701801    -0.83500
C512        C  0.85511728  0.35522140  0.07464109     1.04200
O513        O  0.87665292  0.34395275  0.09003387    -0.76300
O514        O  0.91276375  0.33133775  0.14000970    -0.76500
C515        C  0.92529661  0.35639783  0.14715886     1.04100
O516        O  0.88496899  0.33057966  0.19675951    -0.83800
O517        O  0.83296219  0.36474017  0.20383804    -0.80900
C518        C  0.80803549  0.37734663  0.19700837     0.99700
O519        O  0.80352024  0.38787751  0.17049227    -0.80900
O520        O  0.79581576  0.33562997  0.13688838    -0.83500
C521        C  0.80232376  0.31048633  0.12454553     1.04100
O522        O  0.82886717  0.30540630  0.11425399    -0.76300
O523        O  0.86269420  0.29752790  0.16628830    -0.76500
C524        C  0.87488051  0.30400849  0.19150810     1.04100
Cr525      Cr  0.87069846  0.37080586  0.17968287     1.93700
Cr526      Cr  0.82054974  0.37290563  0.13056931     1.93200
Cr527      Cr  0.86909450  0.32217720  0.12896492     1.39100
O528        O  0.85354898  0.35535630  0.14634365    -1.21600
O529        O  0.09407882  0.16284996  0.37293545    -0.83800
O530        O  0.14426495  0.17460211  0.40895778    -0.80900
C531        C  0.15048235  0.14927565  0.42148375     0.99600
O532        O  0.16131034  0.12743699  0.40619703    -0.80900
O533        O  0.17362577  0.09101421  0.35632155    -0.83500
C534        C  0.14836319  0.07864109  0.34967326     1.04200
O535        O  0.12675203  0.09411565  0.33865942    -0.76300
O536        O  0.09080125  0.14430238  0.32636216    -0.76500
C537        C  0.07853600  0.15152317  0.35153709     1.04100
O538        O  0.11865195  0.20079681  0.32516888    -0.83800
O539        O  0.17114241  0.20786304  0.35862295    -0.80900
C540        C  0.19611300  0.20097621  0.37112565     0.99700
O541        O  0.20043144  0.17454369  0.38197078    -0.80900
O542        O  0.20759840  0.14082298  0.32989053    -0.83500
C543        C  0.20088030  0.12854715  0.30479160     1.04100
O544        O  0.17435280  0.11815808  0.29990760    -0.76300
O545        O  0.14078469  0.17024229  0.29212594    -0.76500
C546        C  0.12866762  0.19548321  0.29859826     1.04100
Cr547      Cr  0.13332305  0.18392806  0.36529611     1.93700
Cr548      Cr  0.18314738  0.13459538  0.36728000     1.93200
Cr549      Cr  0.13431930  0.13302535  0.31686070     1.39100
O550        O  0.15013454  0.15041967  0.34988939    -1.21600
O551        O  0.17362895  0.36130014  0.08678831    -0.83800
O552        O  0.16174237  0.41113514  0.12351348    -0.80900
C553        C  0.15057314  0.42637178  0.14522962     0.99600
O554        O  0.14353932  0.41373610  0.17028480    -0.80900
O555        O  0.09323767  0.37803623  0.15784998    -0.83500
C556        C  0.07766724  0.35667927  0.14649321     1.04200
O557        O  0.08993828  0.33154877  0.13918348    -0.76300
O558        O  0.12649896  0.34413520  0.08932631    -0.76500
C559        C  0.14844729  0.35488243  0.07409944     1.04100
O560        O  0.20680274  0.33397349  0.13673397    -0.83800
O561        O  0.19983738  0.38604820  0.17079848    -0.80900
C562        C  0.19468758  0.37568439  0.19726986     0.99700
O563        O  0.16957402  0.36326036  0.20368435    -0.80900
O564        O  0.11729976  0.32992317  0.19582435    -0.83500
C565        C  0.12742304  0.30339098  0.19049370     1.04100
O566        O  0.13953533  0.29696791  0.16523137    -0.76300
O567        O  0.17339460  0.30478674  0.11333227    -0.76500
C568        C  0.19987061  0.30913002  0.12402595     1.04100
Cr569      Cr  0.18287765  0.37180719  0.13057627     1.93700
Cr570      Cr  0.13223289  0.37010752  0.17926941     1.93200
Cr571      Cr  0.13348532  0.32196431  0.12812963     1.39100
O572        O  0.14941618  0.35474430  0.14589825    -1.21600
O573        O  0.33046273  0.14546019  0.08637451    -0.83800
O574        O  0.34184350  0.09533853  0.12259465    -0.80900
C575        C  0.35278589  0.07975000  0.14415521     0.99600
O576        O  0.35975329  0.09202586  0.16939933    -0.80900
O577        O  0.41012587  0.12786215  0.15744454    -0.83500
C578        C  0.42574538  0.14935174  0.14637934     1.04200
O579        O  0.41358359  0.17470847  0.13969558    -0.76300
O580        O  0.37752017  0.16272682  0.08957622    -0.76500
C581        C  0.35584481  0.15188145  0.07408216     1.04100
O582        O  0.29673195  0.17229421  0.13621035    -0.83800
O583        O  0.30343399  0.12001626  0.16994212    -0.80900
C584        C  0.30849319  0.13008192  0.19654056     0.99700
O585        O  0.33368065  0.14218520  0.20325752    -0.80900
O586        O  0.38604322  0.17557494  0.19603241    -0.83500
C587        C  0.37599662  0.20222071  0.19101501     1.04100
O588        O  0.36382891  0.20895430  0.16585274    -0.76300
O589        O  0.33035318  0.20181740  0.11351006    -0.76500
C590        C  0.30373970  0.19726548  0.12379308     1.04100
Cr591      Cr  0.32073155  0.13457070  0.12994740     1.93700
Cr592      Cr  0.37110569  0.13557535  0.17892366     1.93200
Cr593      Cr  0.37013865  0.18445264  0.12848063     1.39100
O594        O  0.35407065  0.15143720  0.14571208    -1.21600
O595        O  0.41025088  0.34406622  0.37258408    -0.83800
O596        O  0.36041672  0.33183588  0.40927932    -0.80900
C597        C  0.35365305  0.35698141  0.42185858     0.99600
O598        O  0.34270050  0.37872871  0.40652006    -0.80900
O599        O  0.33030864  0.41505459  0.35658610    -0.83500
C600        C  0.35542138  0.42746247  0.34939516     1.04200
O601        O  0.37686848  0.41206118  0.33794888    -0.76300
O602        O  0.41288483  0.36187854  0.32567323    -0.76500
C603        C  0.42551043  0.35507432  0.35078679     1.04100
O604        O  0.38559184  0.30551461  0.32535078    -0.83800
O605        O  0.33354036  0.29816413  0.35938370    -0.80900
C606        C  0.30846735  0.30490508  0.37176195     0.99700
O607        O  0.30379179  0.33139205  0.38233105    -0.80900
O608        O  0.29609463  0.36526786  0.33042252    -0.83500
C609        C  0.30253272  0.37750899  0.30522426     1.04100
O610        O  0.32904420  0.38771671  0.29995097    -0.76300
O611        O  0.36258323  0.33545253  0.29233361    -0.76500
C612        C  0.37513230  0.31042303  0.29886525     1.04100
Cr613      Cr  0.37112959  0.32251857  0.36552701     1.93700
Cr614      Cr  0.32084609  0.37147175  0.36761646     1.93200
Cr615      Cr  0.36921265  0.37295264  0.31661724     1.39100
O616        O  0.35383564  0.35576731  0.35002037    -1.21600
O617        O  0.09103225  0.64418218  0.16945351    -0.83800
O618        O  0.12719653  0.59412294  0.15705780    -0.80900
C619        C  0.14879470  0.57874271  0.14589099     0.99600
O620        O  0.17390369  0.59122961  0.13885754    -0.80900
O621        O  0.16119332  0.62779627  0.08914902    -0.83500
C622        C  0.15026361  0.64964888  0.07394484     1.04200
O623        O  0.14395252  0.67488582  0.08657195    -0.76300
O624        O  0.09398303  0.66268760  0.12282059    -0.76500
C625        C  0.07856994  0.65146604  0.14437719     1.04100
O626        O  0.14110169  0.67032756  0.20342866    -0.83800
O627        O  0.17489803  0.61832269  0.19547776    -0.80900
C628        C  0.20145564  0.62853247  0.19031981     0.99700
O629        O  0.20796971  0.64091701  0.16519563    -0.80900
O630        O  0.20019452  0.67499620  0.11333390    -0.83500
C631        C  0.19556915  0.70139563  0.12411972     1.04100
O632        O  0.17068514  0.70799837  0.13689081    -0.76300
O633        O  0.11844812  0.70064724  0.17052345    -0.76500
C634        C  0.12864217  0.69543258  0.19704346     1.04100
Cr635      Cr  0.13468881  0.63306355  0.17874869     1.93700
Cr636      Cr  0.18321607  0.63487305  0.12796353     1.93200
Cr637      Cr  0.13309626  0.68393730  0.13032032     1.39100
O638        O  0.15022665  0.65051564  0.14560735    -1.21600
O639        O  0.41050876  0.62761701  0.33808139    -0.83800
O640        O  0.36017037  0.59188266  0.32599026    -0.80900
C641        C  0.35344147  0.57964494  0.35129867     0.99600
O642        O  0.34241894  0.59521628  0.37283651    -0.80900
O643        O  0.33083038  0.64552082  0.40880905    -0.83500
C644        C  0.35616189  0.65218303  0.42106782     1.04200
O645        O  0.37777240  0.66312843  0.40551985    -0.76300
O646        O  0.41393771  0.67463646  0.35532406    -0.76500
C647        C  0.42611991  0.64919584  0.34895867     1.04100
O648        O  0.38671525  0.67510406  0.29909167    -0.83800
O649        O  0.33426324  0.64182146  0.29191184    -0.80900
C650        C  0.30909208  0.62963734  0.29859971     0.99700
O651        O  0.30395228  0.61969976  0.32526428    -0.80900
O652        O  0.29697800  0.67207340  0.35887980    -0.83500
C653        C  0.30390970  0.69716472  0.37109653     1.04100
O654        O  0.33056953  0.70192111  0.38116301    -0.76300
O655        O  0.36409125  0.70865918  0.32869504    -0.76500
C656        C  0.37634617  0.70168764  0.30363001     1.04100
Cr657      Cr  0.37160551  0.63529194  0.31637995     1.93700
Cr658      Cr  0.32114797  0.63441568  0.36527966     1.93200
Cr659      Cr  0.37042266  0.68449672  0.36637563     1.39100
O660        O  0.35445218  0.65131430  0.34943957    -1.21600
O661        O  0.12566657  0.84338128  0.40633875    -0.83800
O662        O  0.08981862  0.83159128  0.35585223    -0.80900
C663        C  0.07771153  0.85675129  0.34835550     0.99600
O664        O  0.09344793  0.87808617  0.33713220    -0.80900
O665        O  0.14398116  0.91391293  0.32602352    -0.83500
C666        C  0.15030981  0.92632997  0.35135632     1.04200
O667        O  0.16104965  0.91091007  0.37317695    -0.76300
O668        O  0.17263584  0.86076721  0.40964080    -0.76500
C669        C  0.14730293  0.85421305  0.42192287     1.04100
O670        O  0.17291644  0.80425374  0.38231295    -0.83800
O671        O  0.13949516  0.79703048  0.33004881    -0.80900
C672        C  0.12771837  0.80368577  0.30468785     0.99700
O673        O  0.11817204  0.83040465  0.29923876    -0.80900
O674        O  0.17085569  0.86375672  0.29271514    -0.83500
C675        C  0.19583030  0.87615713  0.29976723     1.04100
O676        O  0.20024845  0.88644246  0.32638830    -0.76300
O677        O  0.20671080  0.83401151  0.36010920    -0.76500
C678        C  0.19959520  0.80888284  0.37219712     1.04100
Cr679      Cr  0.13316967  0.82171171  0.36730871     1.93700
Cr680      Cr  0.13290771  0.87036224  0.31644516     1.93200
Cr681      Cr  0.18252496  0.87171655  0.36614149     1.39100
O682        O  0.14940663  0.85467885  0.35005293    -1.21600
O683        O  0.40960130  0.87926015  0.15670019    -0.83800
O684        O  0.35920300  0.91539208  0.16784245    -0.80900
C685        C  0.35242034  0.92742724  0.14244172     0.99600
O686        O  0.34160173  0.91163154  0.12096745    -0.80900
O687        O  0.33010465  0.86087835  0.08554699    -0.83500
C688        C  0.35543939  0.85403375  0.07341586     1.04200
O689        O  0.37700374  0.84325558  0.08913225    -0.76300
O690        O  0.41297675  0.83216327  0.13961577    -0.76500
C691        C  0.42523007  0.85754570  0.14608394     1.04100
O692        O  0.38517379  0.83236380  0.19595017    -0.83800
O693        O  0.33271424  0.86588445  0.20234142    -0.80900
C694        C  0.30753485  0.87784873  0.19527208     0.99700
O695        O  0.30280284  0.88776735  0.16854218    -0.80900
O696        O  0.29609104  0.83504254  0.13565449    -0.83500
C697        C  0.30299240  0.80980521  0.12376813     1.04100
O698        O  0.32964795  0.80482635  0.11380193    -0.76300
O699        O  0.36302235  0.79845841  0.16637329    -0.76500
C700        C  0.37510506  0.80565583  0.19145365     1.04100
Cr701      Cr  0.37038000  0.87203139  0.17809394     1.93700
Cr702      Cr  0.32028872  0.87253312  0.12886760     1.93200
Cr703      Cr  0.36948003  0.82231536  0.12850349     1.39100
O704        O  0.35348204  0.85572253  0.14505230    -1.21600
C705        C  0.21955251  0.87897809  0.27720542    -0.17000
C706        C  0.23981322  0.88046904  0.25852529     0.07100
C707        C  0.26364671  0.88103266  0.23669121     0.08900
C708        C  0.28385851  0.88032181  0.21791524    -0.17800
C709        C  0.37775184  0.78315738  0.21523764    -0.17000
C710        C  0.37903597  0.76455572  0.23557589     0.07100
C711        C  0.37942416  0.74288421  0.25954511     0.08900
C712        C  0.37868868  0.72425191  0.27988129    -0.17800
C713        C  0.28117557  0.72068556  0.37386518    -0.17000
C714        C  0.26245180  0.74088950  0.37518150     0.07100
C715        C  0.24073710  0.76479963  0.37549614     0.08900
C716        C  0.22212484  0.78513177  0.37465103    -0.17800
C717        C  0.21882984  0.72432266  0.12144552    -0.17000
C718        C  0.23829312  0.74378008  0.12032523     0.07100
C719        C  0.26092120  0.76674969  0.12024670     0.08900
C720        C  0.28015097  0.78644399  0.12124249    -0.17800
C721        C  0.12492337  0.78046442  0.28169598    -0.17000
C722        C  0.12391196  0.76084604  0.26237043     0.07100
C723        C  0.12423492  0.73786263  0.23972276     0.08900
C724        C  0.12567742  0.71836073  0.22030662    -0.17800
C725        C  0.22462266  0.62581858  0.21337563    -0.17000
C726        C  0.24405259  0.62488637  0.23289805     0.07100
C727        C  0.26672829  0.62522850  0.25585422     0.08900
C728        C  0.28606082  0.62664727  0.27544330    -0.17800
C729        C  0.35876425  0.45993172  0.35293169    -0.17000
C730        C  0.35968933  0.48742133  0.35485581     0.07100
C731        C  0.35892776  0.51970546  0.35567466     0.08900
C732        C  0.35700063  0.54719446  0.35476252    -0.17800
C733        C  0.35550822  0.95992519  0.13884246    -0.17000
C734        C  0.35685578  0.98745422  0.13787009     0.07100
C735        C  0.35701374  0.01975859  0.13867652     0.08900
C736        C  0.35586522  0.04724429  0.14062416    -0.17800
C737        C  0.37869332  0.22526512  0.21422205    -0.17000
C738        C  0.37961470  0.24477533  0.23367787     0.07100
C739        C  0.37928946  0.26770600  0.25640453     0.08900
C740        C  0.37793893  0.28726789  0.27578296    -0.17800
C741        C  0.14565583  0.54621687  0.14269496    -0.17000
C742        C  0.14477997  0.51869152  0.14131877     0.07100
C743        C  0.14543723  0.48638950  0.14111436     0.08900
C744        C  0.14718336  0.45889133  0.14219692    -0.17800
C745        C  0.21764301  0.37852420  0.22048639    -0.17000
C746        C  0.23705273  0.38005543  0.23996893     0.07100
C747        C  0.25984612  0.38068462  0.26276505     0.08900
C748        C  0.27934274  0.38000450  0.28220753    -0.17800
C749        C  0.22237121  0.28543217  0.12141394    -0.17000
C750        C  0.24091074  0.26508737  0.12024262     0.07100
C751        C  0.26252214  0.24114291  0.12009980     0.08900
C752        C  0.28116141  0.22088190  0.12112278    -0.17800
C753        C  0.14504076  0.04614931  0.35319622    -0.17000
C754        C  0.14408428  0.01863600  0.35494071     0.07100
C755        C  0.14477722  0.98632458  0.35551354     0.08900
C756        C  0.14667138  0.95882145  0.35455848    -0.17800
C757        C  0.21997153  0.22345988  0.37334807    -0.17000
C758        C  0.24044380  0.24193824  0.37438047     0.07100
C759        C  0.26451881  0.26351652  0.37467203     0.08900
C760        C  0.28483682  0.28218084  0.37398614    -0.17800
C761        C  0.28532986  0.12732889  0.21956861    -0.17000
C762        C  0.26586022  0.12596873  0.23901238     0.07100
C763        C  0.24313111  0.12548461  0.26188240     0.08900
C764        C  0.22378799  0.12615708  0.28148321    -0.17800
C765        C  0.12590854  0.21845087  0.27534850    -0.17000
C766        C  0.12459632  0.23786226  0.25582381     0.07100
C767        C  0.12420377  0.26065792  0.23298353     0.08900
C768        C  0.12495887  0.28015977  0.21351808    -0.17800
C769        C  0.95781364  0.35965583  0.14381921    -0.17000
C770        C  0.98531820  0.36113216  0.14237377     0.07100
C771        C  0.01763364  0.36136625  0.14221169     0.08900
C772        C  0.04515859  0.36013228  0.14339752    -0.17800
C773        C  0.95876930  0.14803532  0.35562264    -0.17000
C774        C  0.98628010  0.14680048  0.35689480     0.07100
C775        C  0.01857706  0.14688015  0.35666105     0.08900
C776        C  0.04606576  0.14826236  0.35508382    -0.17800
C777        C  0.87765597  0.28074405  0.21452838    -0.17000
C778        C  0.87901021  0.26117813  0.23393611     0.07100
C779        C  0.87945691  0.23824327  0.25670080     0.08900
C780        C  0.87874500  0.21867724  0.27614316    -0.17800
C781        C  0.54540159  0.35876929  0.35274550    -0.17000
C782        C  0.51789207  0.35998855  0.35430205     0.07100
C783        C  0.48557641  0.35981794  0.35472065     0.08900
C784        C  0.45805187  0.35837800  0.35375546    -0.17800
C785        C  0.78573243  0.22439936  0.37411849    -0.17000
C786        C  0.76623713  0.24388298  0.37527169     0.07100
C787        C  0.74338247  0.26672653  0.37551709     0.08900
C788        C  0.72388290  0.28622430  0.37475306    -0.17800
C789        C  0.78438420  0.37988907  0.21963260    -0.17000
C790        C  0.76399632  0.38080787  0.23818644     0.07100
C791        C  0.73987043  0.38055032  0.25966814     0.08900
C792        C  0.71939197  0.37925893  0.27810402    -0.17800
C793        C  0.45817271  0.14574532  0.14280034    -0.17000
C794        C  0.48565628  0.14449225  0.14104697     0.07100
C795        C  0.51794828  0.14489325  0.14058409     0.08900
C796        C  0.54543742  0.14667319  0.14168304    -0.17800
C797        C  0.77915713  0.28735349  0.12189288    -0.17000
C798        C  0.75969903  0.26782069  0.12087357     0.07100
C799        C  0.73690823  0.24490726  0.12099470     0.08900
C800        C  0.71748458  0.22534832  0.12218121    -0.17800
C801        C  0.78184442  0.12635247  0.28027086    -0.17000
C802        C  0.76342066  0.12552298  0.25975042     0.07100
C803        C  0.74194130  0.12560294  0.23559759     0.08900
C804        C  0.72335988  0.12655085  0.21522086    -0.17800
C805        C  0.62446961  0.21799256  0.22093953    -0.17000
C806        C  0.62330708  0.23732670  0.24054011     0.07100
C807        C  0.62355877  0.26010686  0.26338917     0.08900
C808        C  0.62505927  0.27968243  0.28272386    -0.17800
C809        C  0.45855785  0.64558581  0.35264862    -0.17000
C810        C  0.48604764  0.64431609  0.35453055     0.07100
C811        C  0.51836075  0.64471130  0.35521919     0.08900
C812        C  0.54587676  0.64646535  0.35430839    -0.17800
C813        C  0.64582021  0.54574423  0.35394651    -0.17000
C814        C  0.64449236  0.51826797  0.35594535     0.07100
C815        C  0.64454069  0.48595909  0.35657377     0.08900
C816        C  0.64600114  0.45843939  0.35554847    -0.17800
C817        C  0.54517003  0.86012379  0.14351377    -0.17000
C818        C  0.51766737  0.86180239  0.14191215     0.07100
C819        C  0.48532149  0.86213381  0.14165211     0.08900
C820        C  0.45777503  0.86093307  0.14287730    -0.17800
C821        C  0.64534683  0.04634389  0.14195234    -0.17000
C822        C  0.64422100  0.01885502  0.13995177     0.07100
C823        C  0.64456784  0.98653399  0.13946415     0.08900
C824        C  0.64618464  0.95902102  0.14067389    -0.17800
C825        C  0.62561309  0.78032903  0.21406553    -0.17000
C826        C  0.62467723  0.76058913  0.23333742     0.07100
C827        C  0.62479520  0.73747147  0.25594561     0.08900
C828        C  0.62589496  0.71785659  0.27533650    -0.17800
C829        C  0.85924467  0.54665051  0.14206963    -0.17000
C830        C  0.86032447  0.51914826  0.14046136     0.07100
C831        C  0.85976674  0.48685319  0.14018463     0.08900
C832        C  0.85780861  0.45937865  0.14142204    -0.17800
C833        C  0.95870355  0.64871651  0.14053220    -0.17000
C834        C  0.98622343  0.64748684  0.13934489     0.07100
C835        C  0.01852860  0.64739254  0.13961853     0.08900
C836        C  0.04603759  0.64849200  0.14112211    -0.17800
C837        C  0.78163946  0.62631261  0.21524668    -0.17000
C838        C  0.76324371  0.62525006  0.23575396     0.07100
C839        C  0.74186705  0.62509783  0.25994340     0.08900
C840        C  0.72341682  0.62594900  0.28041106    -0.17800
C841        C  0.72316209  0.78630571  0.12147199    -0.17000
C842        C  0.74274435  0.76687795  0.12084067     0.07100
C843        C  0.76582496  0.74424748  0.12122390     0.08900
C844        C  0.78551528  0.72495013  0.12235854    -0.17800
C845        C  0.95787806  0.85934270  0.35175436    -0.17000
C846        C  0.98537901  0.86102245  0.35280646     0.07100
C847        C  0.01768075  0.86145753  0.35257101     0.08900
C848        C  0.04519817  0.86029318  0.35125300    -0.17800
C849        C  0.85785835  0.95872994  0.35449885    -0.17000
C850        C  0.85988593  0.98621745  0.35559906     0.07100
C851        C  0.86047048  0.01853699  0.35519724     0.08900
C852        C  0.85936568  0.04605172  0.35352473    -0.17800
C853        C  0.77953344  0.78671957  0.37617108    -0.17000
C854        C  0.76004980  0.76723691  0.37743882     0.07100
C855        C  0.73731342  0.74429097  0.37707964     0.08900
C856        C  0.71803010  0.72464871  0.37532645    -0.17800
C857        C  0.78427040  0.87900406  0.27693253    -0.17000
C858        C  0.76400667  0.88010261  0.25824085     0.07100
C859        C  0.73998139  0.88009834  0.23662284     0.08900
C860        C  0.71950745  0.87906500  0.21815785    -0.17800
C861        C  0.87885932  0.71850911  0.22017609    -0.17000
C862        C  0.87975040  0.73789293  0.23972633     0.07100
C863        C  0.87936833  0.76064902  0.26257436     0.08900
C864        C  0.87792703  0.78012845  0.28199891    -0.17800
C865        C  0.14715538  0.35783612  0.95411471    -0.17000
C866        C  0.14547532  0.35920917  0.98162411     0.07100
C867        C  0.14484541  0.35937332  0.01396125     0.08900
C868        C  0.14561956  0.35816146  0.04151758    -0.17800
C869        C  0.35932725  0.14779020  0.95435830    -0.17000
C870        C  0.36073208  0.14664967  0.98186325     0.07100
C871        C  0.36071772  0.14684515  0.01415514     0.08900
C872        C  0.35930084  0.14836661  0.04163909    -0.17800
C873        C  0.27983631  0.21810855  0.87382350    -0.17000
C874        C  0.26040417  0.23763200  0.87432115     0.07100
C875        C  0.23750610  0.26034822  0.87385197     0.08900
C876        C  0.21789999  0.27967235  0.87274450    -0.17800
C877        C  0.35641191  0.35949599  0.54186661    -0.17000
C878        C  0.35780764  0.36092587  0.51433951     0.07100
C879        C  0.35798336  0.36113828  0.48199011     0.08900
C880        C  0.35682312  0.36003380  0.45443869    -0.17800
C881        C  0.37793362  0.28615216  0.72013079    -0.17000
C882        C  0.37882142  0.26657584  0.73949943     0.07100
C883        C  0.37857779  0.24361966  0.76215292     0.08900
C884        C  0.37733655  0.22403858  0.78149646    -0.17800
C885        C  0.22251384  0.37814742  0.78052671    -0.17000
C886        C  0.24109360  0.37909748  0.76018008     0.07100
C887        C  0.26260303  0.37914951  0.73610834     0.08900
C888        C  0.28106585  0.37833815  0.71565154    -0.17800
C889        C  0.14516504  0.14693402  0.54121670    -0.17000
C890        C  0.14416885  0.14530098  0.51371437     0.07100
C891        C  0.14481129  0.14494737  0.48142048     0.08900
C892        C  0.14670502  0.14607770  0.45393854    -0.17800
C893        C  0.12470544  0.28607282  0.77552409    -0.17000
C894        C  0.12392801  0.26660834  0.75602468     0.07100
C895        C  0.12440402  0.24381820  0.73317440     0.08900
C896        C  0.12582978  0.22436929  0.71369624    -0.17800
C897        C  0.28381146  0.12500247  0.77769172    -0.17000
C898        C  0.26346351  0.12411444  0.75911700     0.07100
C899        C  0.23955465  0.12440915  0.73743111     0.08900
C900        C  0.21931613  0.12566579  0.71875735    -0.17800
C901        C  0.22432631  0.21816426  0.62065868    -0.17000
C902        C  0.24363699  0.23781743  0.61959921     0.07100
C903        C  0.26620611  0.26090890  0.61980899     0.08900
C904        C  0.28550704  0.28054782  0.62121528    -0.17800
C905        C  0.35791169  0.54620256  0.64084082    -0.17000
C906        C  0.35966763  0.51866695  0.64012762     0.07100
C907        C  0.36018278  0.48633168  0.64099406     0.08900
C908        C  0.35911167  0.45881900  0.64293217    -0.17800
C909        C  0.35993452  0.64802777  0.54082215    -0.17000
C910        C  0.36130007  0.64687281  0.51331197     0.07100
C911        C  0.36118039  0.64715245  0.48101152     0.08900
C912        C  0.35966769  0.64872614  0.45352797    -0.17800
C913        C  0.14516130  0.45821633  0.85343224    -0.17000
C914        C  0.14429667  0.48573973  0.85507667     0.07100
C915        C  0.14497963  0.51805804  0.85542754     0.08900
C916        C  0.14686167  0.54555947  0.85430862    -0.17800
C917        C  0.14522436  0.64678821  0.95416635    -0.17000
C918        C  0.14414200  0.64540293  0.98168607     0.07100
C919        C  0.14466490  0.64531891  0.01399153     0.08900
C920        C  0.14648600  0.64655177  0.04147684    -0.17800
C921        C  0.28518150  0.62613523  0.71828556    -0.17000
C922        C  0.26484189  0.62495542  0.73688945     0.07100
C923        C  0.24080569  0.62474299  0.75848549     0.08900
C924        C  0.22039983  0.62562481  0.77703118    -0.17800
C925        C  0.35865753  0.95841279  0.85336403    -0.17000
C926        C  0.35978641  0.98589937  0.85528538     0.07100
C927        C  0.35937644  0.01819947  0.85607230     0.08900
C928        C  0.35758968  0.04570460  0.85521145    -0.17800
C929        C  0.35780561  0.85808202  0.95364712    -0.17000
C930        C  0.35960932  0.85907447  0.98113457     0.07100
C931        C  0.36009358  0.85866515  0.01342470     0.08900
C932        C  0.35894227  0.85714925  0.04092605    -0.17800
C933        C  0.37863312  0.78663531  0.77495006    -0.17000
C934        C  0.37966870  0.76717566  0.75549813     0.07100
C935        C  0.37957523  0.74432779  0.73276331     0.08900
C936        C  0.37839496  0.72482819  0.71335850    -0.17800
C937        C  0.22452844  0.71787313  0.87438773    -0.17000
C938        C  0.24396512  0.73740832  0.87515750     0.07100
C939        C  0.26676802  0.76025869  0.87480248     0.08900
C940        C  0.28624141  0.77973460  0.87356093    -0.17800
C941        C  0.14669358  0.85926388  0.54179007    -0.17000
C942        C  0.14445375  0.86019434  0.51429714     0.07100
C943        C  0.14329455  0.85951383  0.48197546     0.08900
C944        C  0.14396659  0.85769354  0.45444467    -0.17800
C945        C  0.14466255  0.95875071  0.64238129    -0.17000
C946        C  0.14375767  0.98623336  0.64055365     0.07100
C947        C  0.14452708  0.01849990  0.64000629     0.08900
C948        C  0.14649478  0.04596715  0.64102967    -0.17800
C949        C  0.21858069  0.78074079  0.62162001    -0.17000
C950        C  0.23808313  0.76128815  0.62015181     0.07100
C951        C  0.26087654  0.73839058  0.61968025     0.08900
C952        C  0.28028927  0.71880789  0.62047119    -0.17800
C953        C  0.12543107  0.78639912  0.72015205    -0.17000
C954        C  0.12470162  0.76687446  0.73960847     0.07100
C955        C  0.12520345  0.74398231  0.76237239     0.08900
C956        C  0.12661356  0.72441681  0.78175180    -0.17800
C957        C  0.28049516  0.87811401  0.78095738    -0.17000
C958        C  0.26196180  0.87907933  0.76056018     0.07100
C959        C  0.24059704  0.87926226  0.73633776     0.08900
C960        C  0.22225900  0.87855324  0.71575265    -0.17800
C961        C  0.54538143  0.35734790  0.64307266    -0.17000
C962        C  0.51792626  0.35846341  0.64116602     0.07100
C963        C  0.48567514  0.35823536  0.64051598     0.08900
C964        C  0.45818355  0.35681602  0.64147820    -0.17800
C965        C  0.64435872  0.35560211  0.54258126    -0.17000
C966        C  0.64295990  0.35706482  0.51507200     0.07100
C967        C  0.64300967  0.35737491  0.48274678     0.08900
C968        C  0.64444558  0.35638874  0.45521680    -0.17800
C969        C  0.45798202  0.14551185  0.85136672    -0.17000
C970        C  0.48548270  0.14385094  0.85265003     0.07100
C971        C  0.51779260  0.14317273  0.85289898     0.08900
C972        C  0.54534668  0.14394837  0.85196820    -0.17800
C973        C  0.64498053  0.14702144  0.95446680    -0.17000
C974        C  0.64400522  0.14564909  0.98202688     0.07100
C975        C  0.64461391  0.14542912  0.01439141     0.08900
C976        C  0.64644794  0.14653858  0.04191928    -0.17800
C977        C  0.62519200  0.28006806  0.71590862    -0.17000
C978        C  0.62400171  0.26147069  0.73619525     0.07100
C979        C  0.62393000  0.23990217  0.76016129     0.08900
C980        C  0.62504431  0.22135096  0.78049376    -0.17800
C981        C  0.95772463  0.35709092  0.85543562    -0.17000
C982        C  0.98525553  0.35842145  0.85674230     0.07100
C983        C  0.01759531  0.35831386  0.85674653     0.08900
C984        C  0.04511548  0.35686512  0.85536538    -0.17800
C985        C  0.85676515  0.35966837  0.95499705    -0.17000
C986        C  0.85874689  0.36114533  0.98245045     0.07100
C987        C  0.85948772  0.36089526  0.01473402     0.08900
C988        C  0.85851304  0.35907057  0.04222215    -0.17800
C989        C  0.71728956  0.37804592  0.72087962    -0.17000
C990        C  0.73678299  0.37910491  0.74032464     0.07100
C991        C  0.75964743  0.37901448  0.76308440     0.08900
C992        C  0.77915322  0.37782989  0.78251082    -0.17800
C993        C  0.78523743  0.27959410  0.87529555    -0.17000
C994        C  0.76574200  0.26009726  0.87599470     0.07100
C995        C  0.74293397  0.23722684  0.87553576     0.08900
C996        C  0.72350778  0.21769703  0.87417837    -0.17800
C997        C  0.85650367  0.14517342  0.45442066    -0.17000
C998        C  0.85778386  0.14329617  0.48192616     0.07100
C999        C  0.85774144  0.14264409  0.51426697     0.08900
C1000       C  0.85645803  0.14374200  0.54181052    -0.17800
C1001       C  0.95860957  0.14679338  0.64129644    -0.17000
C1002       C  0.98611820  0.14493392  0.64024562     0.07100
C1003       C  0.01844448  0.14434131  0.64081013     0.08900
C1004       C  0.04595670  0.14537330  0.64263612    -0.17800
C1005       C  0.78582326  0.22358560  0.62100307    -0.17000
C1006       C  0.76635422  0.24308743  0.62008526     0.07100
C1007       C  0.74354505  0.26594099  0.62051728     0.08900
C1008       C  0.72403034  0.28535916  0.62202280    -0.17800
C1009       C  0.78065707  0.12579756  0.71513692    -0.17000
C1010       C  0.76115392  0.12443929  0.73456772     0.07100
C1011       C  0.73816578  0.12398528  0.75721256     0.08900
C1012       C  0.71848131  0.12467531  0.77649397    -0.17800
C1013       C  0.87805508  0.22003991  0.71866825    -0.17000
C1014       C  0.87886575  0.24034071  0.73732917     0.07100
C1015       C  0.87869748  0.26422242  0.75909732     0.08900
C1016       C  0.87762876  0.28448033  0.77779022    -0.17800
C1017       C  0.54599942  0.64673650  0.64117025    -0.17000
C1018       C  0.51847275  0.64542362  0.64014779     0.07100
C1019       C  0.48616198  0.64528017  0.64066418     0.08900
C1020       C  0.45866271  0.64642735  0.64241414    -0.17800
C1021       C  0.64555750  0.54494186  0.64235793    -0.17000
C1022       C  0.64444563  0.51743347  0.64076580     0.07100
C1023       C  0.64477076  0.48512329  0.64050266     0.08900
C1024       C  0.64630382  0.45761430  0.64171815    -0.17800
C1025       C  0.64746942  0.64518858  0.54140275    -0.17000
C1026       C  0.64624660  0.64389935  0.51387954     0.07100
C1027       C  0.64641866  0.64383493  0.48155718     0.08900
C1028       C  0.64784748  0.64510489  0.45403940    -0.17800
C1029       C  0.85663690  0.54517035  0.85402852    -0.17000
C1030       C  0.85826527  0.51768337  0.85516845     0.07100
C1031       C  0.85871895  0.48540462  0.85488013     0.08900
C1032       C  0.85768432  0.45790951  0.85332987    -0.17800
C1033       C  0.04631217  0.64490047  0.85172486    -0.17000
C1034       C  0.01881188  0.64311697  0.85317124     0.07100
C1035       C  0.98647798  0.64254102  0.85342249     0.08900
C1036       C  0.95892905  0.64362437  0.85231680    -0.17800
C1037       C  0.85869793  0.64600923  0.95424600    -0.17000
C1038       C  0.85962763  0.64485923  0.98179180     0.07100
C1039       C  0.85904341  0.64506406  0.01411462     0.08900
C1040       C  0.85719823  0.64649715  0.04160127    -0.17800
C1041       C  0.78623123  0.62554232  0.77544843    -0.17000
C1042       C  0.76677609  0.62419170  0.75598081     0.07100
C1043       C  0.74391893  0.62380956  0.73321444     0.08900
C1044       C  0.72440741  0.62466125  0.71377491    -0.17800
C1045       C  0.54584485  0.85863844  0.85260800    -0.17000
C1046       C  0.51834660  0.85976900  0.85437266     0.07100
C1047       C  0.48604261  0.85926291  0.85494623     0.08900
C1048       C  0.45853857  0.85751185  0.85395795    -0.17800
C1049       C  0.64877859  0.95706204  0.85608577    -0.17000
C1050       C  0.64743655  0.98457226  0.85747908     0.07100
C1051       C  0.64714149  0.01688610  0.85732312     0.08900
C1052       C  0.64808161  0.04440574  0.85576516    -0.17800
C1053       C  0.64393967  0.85589666  0.95413842    -0.17000
C1054       C  0.64232636  0.85785924  0.98158573     0.07100
C1055       C  0.64224136  0.85851328  0.01387444     0.08900
C1056       C  0.64369440  0.85750615  0.04138417    -0.17800
C1057       C  0.62553401  0.77966400  0.78112515    -0.17000
C1058       C  0.62450191  0.76010784  0.76173667     0.07100
C1059       C  0.62464598  0.73701102  0.73920204     0.08900
C1060       C  0.62584841  0.71731938  0.71996081    -0.17800
C1061       C  0.72246169  0.78278032  0.87496528    -0.17000
C1062       C  0.74114367  0.76255054  0.87610948     0.07100
C1063       C  0.76294089  0.73875349  0.87602416     0.08900
C1064       C  0.78164964  0.71855799  0.87476513    -0.17800
C1065       C  0.85726492  0.85877109  0.54158816    -0.17000
C1066       C  0.85946984  0.85980384  0.51411999     0.07100
C1067       C  0.86040915  0.85933846  0.48182960     0.08900
C1068       C  0.85947371  0.85769176  0.45432342    -0.17800
C1069       C  0.04530244  0.85650109  0.64052850    -0.17000
C1070       C  0.01777559  0.85746292  0.63900042     0.07100
C1071       C  0.98544989  0.85703891  0.63884375     0.08900
C1072       C  0.95793951  0.85549533  0.64019752    -0.17800
C1073       C  0.86020240  0.95847481  0.64349833    -0.17000
C1074       C  0.86163885  0.98601025  0.64244435     0.07100
C1075       C  0.86151326  0.01834252  0.64277836     0.08900
C1076       C  0.85992860  0.04584355  0.64432357    -0.17800
C1077       C  0.71901325  0.72291163  0.62225232    -0.17000
C1078       C  0.73915895  0.74169192  0.62137865     0.07100
C1079       C  0.76301023  0.76341823  0.62135972     0.08900
C1080       C  0.78337475  0.78196292  0.62221288    -0.17800
C1081       C  0.87905059  0.72363054  0.78196598    -0.17000
C1082       C  0.87975727  0.74302917  0.76234476     0.07100
C1083       C  0.87929064  0.76573586  0.73933378     0.08900
C1084       C  0.87790645  0.78515961  0.71977227    -0.17800
C1085       C  0.71908863  0.87807229  0.77665279    -0.17000
C1086       C  0.73850037  0.87976282  0.75714183     0.07100
C1087       C  0.76116687  0.88032155  0.73415374     0.08900
C1088       C  0.78045799  0.87943905  0.71447310    -0.17800
loop_ 
_geom_bond_atom_site_label_1 
_geom_bond_atom_site_label_2 
_geom_bond_distance 
_geom_bond_site_symmetry_2 
_ccdc_geom_bond_type 
O1          Cr19   2.010       .  S
O1            C9   1.265       .  A
O2          Cr19   1.978       .  S
O2            C3   1.259       .  A
C3            O4   1.265       .  A
C3         C1073   1.437       .  S
O4          Cr20   2.010       .  S
O5          Cr20   1.978       .  S
O5            C6   1.259       .  A
C6            O7   1.265       .  A
C6         C1065   1.436       .  S
O7          Cr21   2.009       .  S
O8          Cr21   1.978       .  S
O8            C9   1.259       .  A
C9         C1072   1.437       .  S
O10         Cr19   1.977       .  S
O10          C18   1.258       .  A
O11         Cr19   2.010       .  S
O11          C12   1.264       .  A
C12          O13   1.258       .  A
C12        C1088   1.435       .  S
O13         Cr20   1.975       .  S
O14         Cr20   2.009       .  S
O14          C15   1.264       .  A
C15          O16   1.258       .  A
C15        C1080   1.434       .  S
O16         Cr21   1.976       .  S
O17         Cr21   2.011       .  S
O17          C18   1.264       .  A
C18        C1084   1.437       .  S
Cr19         O22   1.774       .  S
Cr20         O22   1.775       .  S
Cr21         O22   1.775       .  S
O23         Cr41   1.977       .  S
O23          C31   1.259       .  A
O24         Cr41   2.011       .  S
O24          C25   1.265       .  A
C25          O26   1.259       .  A
C25        C1053   1.436       .  S
O26         Cr42   1.976       .  S
O27         Cr42   2.008       .  S
O27          C28   1.264       .  A
C28          O29   1.258       .  A
C28        C1045   1.436       .  S
O29         Cr43   1.979       .  S
O30         Cr43   2.010       .  S
O30          C31   1.265       .  A
C31        C1049   1.437       .  S
O32         Cr41   2.010       .  S
O32          C40   1.264       .  A
O33         Cr41   1.976       .  S
O33          C34   1.258       .  A
C34          O35   1.263       .  A
C34        C1061   1.435       .  S
O35         Cr42   2.009       .  S
O36         Cr42   1.973       .  S
O36          C37   1.258       .  A
C37          O38   1.265       .  A
C37        C1057   1.435       .  S
O38         Cr43   2.012       .  S
O39         Cr43   1.975       .  S
O39          C40   1.258       .  A
C40        C1085   1.435       .  S
Cr41         O44   1.774       .  S
Cr42         O44   1.774       .  S
Cr43         O44   1.774       .  S
O45         Cr63   1.978       .  S
O45          C53   1.259       .  A
O46         Cr63   2.010       .  S
O46          C47   1.265       .  A
C47          O48   1.258       .  A
C47        C1036   1.437       .  S
O48         Cr64   1.978       .  S
O49         Cr64   2.010       .  S
O49          C50   1.265       .  A
C50          O51   1.259       .  A
C50        C1029   1.435       .  S
O51         Cr65   1.976       .  S
O52         Cr65   2.012       .  S
O52          C53   1.265       .  A
C53        C1037   1.437       .  S
O54         Cr63   2.009       .  S
O54          C62   1.264       .  A
O55         Cr63   1.976       .  S
O55          C56   1.258       .  A
C56          O57   1.265       .  A
C56        C1081   1.437       .  S
O57         Cr64   2.011       .  S
O58         Cr64   1.975       .  S
O58          C59   1.257       .  A
C59          O60   1.264       .  A
C59        C1041   1.435       .  S
O60         Cr65   2.010       .  S
O61         Cr65   1.976       .  S
O61          C62   1.258       .  A
C62        C1064   1.435       .  S
Cr63         O66   1.773       .  S
Cr64         O66   1.774       .  S
Cr65         O66   1.774       .  S
O67         Cr85   2.011       .  S
O67          C75   1.265       .  A
O68         Cr85   1.978       .  S
O68          C69   1.259       .  A
C69          O70   1.265       .  A
C69        C1021   1.436       .  S
O70         Cr86   2.009       .  S
O71         Cr86   1.976       .  S
O71          C72   1.259       .  A
C72          O73   1.265       .  A
C72        C1025   1.437       .  S
O73         Cr87   2.012       .  S
O74         Cr87   1.977       .  S
O74          C75   1.259       .  A
C75        C1017   1.436       .  S
O76         Cr85   1.976       .  S
O76          C84   1.258       .  A
O77         Cr85   2.011       .  S
O77          C78   1.264       .  A
C78          O79   1.257       .  A
C78        C1044   1.434       .  S
O79         Cr86   1.974       .  S
O80         Cr86   2.009       .  S
O80          C81   1.264       .  A
C81          O82   1.257       .  A
C81        C1077   1.434       .  S
O82         Cr87   1.975       .  S
O83         Cr87   2.009       .  S
O83          C84   1.264       .  A
C84        C1060   1.435       .  S
Cr85         O88   1.773       .  S
Cr86         O88   1.774       .  S
Cr87         O88   1.774       .  S
O89        Cr107   1.979       .  S
O89          C97   1.259       .  A
O90        Cr107   2.011       .  S
O90          C91   1.265       .  A
C91          O92   1.259       .  A
C91        C1000   1.438       .  S
O92        Cr108   1.978       .  S
O93        Cr108   2.012       .  S
O93          C94   1.266       .  A
C94          O95   1.259       .  A
C94        C1076   1.437       .  S
O95        Cr109   1.977       .  S
O96        Cr109   2.010       .  S
O96          C97   1.265       .  A
C97        C1001   1.437       .  S
O98        Cr107   2.012       .  S
O98         C106   1.265       .  A
O99        Cr107   1.974       .  S
O99         C100   1.257       .  A
C100        O101   1.265       .  A
C100       C1005   1.436       .  S
O101       Cr108   2.012       .  S
O102       Cr108   1.975       .  S
O102        C103   1.257       .  A
C103        O104   1.264       .  A
C103       C1009   1.434       .  S
O104       Cr109   2.010       .  S
O105       Cr109   1.977       .  S
O105        C106   1.258       .  A
C106       C1013   1.437       .  S
Cr107       O110   1.773       .  S
Cr108       O110   1.774       .  S
Cr109       O110   1.774       .  S
O111       Cr129   1.977       .  S
O111        C119   1.259       .  A
O112       Cr129   2.012       .  S
O112        C113   1.265       .  A
C113        O114   1.259       .  A
C113        C981   1.438       .  S
O114       Cr130   1.978       .  S
O115       Cr130   2.010       .  S
O115        C116   1.265       .  A
C116        O117   1.258       .  A
C116        C985   1.436       .  S
O117       Cr131   1.976       .  S
O118       Cr131   2.009       .  S
O118        C119   1.265       .  A
C119       C1032   1.435       .  S
O120       Cr129   2.010       .  S
O120        C128   1.264       .  A
O121       Cr129   1.977       .  S
O121        C122   1.258       .  A
C122        O123   1.264       .  A
C122       C1016   1.437       .  S
O123       Cr130   2.010       .  S
O124       Cr130   1.975       .  S
O124        C125   1.257       .  A
C125        O126   1.264       .  A
C125        C993   1.436       .  S
O126       Cr131   2.011       .  S
O127       Cr131   1.974       .  S
O127        C128   1.257       .  A
C128        C992   1.434       .  S
Cr129       O132   1.774       .  S
Cr130       O132   1.773       .  S
Cr131       O132   1.774       .  S
O133       Cr151   2.011       .  S
O133        C141   1.265       .  A
O134       Cr151   1.979       .  S
O134        C135   1.259       .  A
C135        O136   1.265       .  A
C135        C973   1.439       .  S
O136       Cr152   2.012       .  S
O137       Cr152   1.976       .  S
O137        C138   1.258       .  A
C138        O139   1.265       .  A
C138       C1052   1.436       .  S
O139       Cr153   2.011       .  S
O140       Cr153   1.977       .  S
O140        C141   1.259       .  A
C141        C972   1.436       .  S
O142       Cr151   1.976       .  S
O142        C150   1.258       .  A
O143       Cr151   2.011       .  S
O143        C144   1.264       .  A
C144        O145   1.257       .  A
C144        C996   1.436       .  S
O145       Cr152   1.975       .  S
O146       Cr152   2.010       .  S
O146        C147   1.264       .  A
C147        O148   1.257       .  A
C147       C1012   1.434       .  S
O148       Cr153   1.974       .  S
O149       Cr153   2.007       .  S
O149        C150   1.263       .  A
C150        C980   1.433       .  S
Cr151       O154   1.774       .  S
Cr152       O154   1.774       .  S
Cr153       O154   1.775       .  S
O155       Cr173   2.012       .  S
O155        C163   1.266       .  A
O156       Cr173   1.977       .  S
O156        C157   1.258       .  A
C157        O158   1.264       .  A
C157       C1024   1.436       .  S
O158       Cr174   2.009       .  S
O159       Cr174   1.975       .  S
O159        C160   1.259       .  A
C160        O161   1.265       .  A
C160        C961   1.434       .  S
O161       Cr175   2.009       .  S
O162       Cr175   1.976       .  S
O162        C163   1.259       .  A
C163        C965   1.437       .  S
O164       Cr173   1.976       .  S
O164        C172   1.257       .  A
O165       Cr173   2.011       .  S
O165        C166   1.265       .  A
C166        O167   1.258       .  A
C166        C989   1.434       .  S
O167       Cr174   1.973       .  S
O168       Cr174   2.008       .  S
O168        C169   1.263       .  A
C169        O170   1.258       .  A
C169        C977   1.433       .  S
O170       Cr175   1.975       .  S
O171       Cr175   2.010       .  S
O171        C172   1.264       .  A
C172       C1008   1.436       .  S
Cr173       O176   1.773       .  S
Cr174       O176   1.774       .  S
Cr175       O176   1.774       .  S
O177       Cr195   1.980       .  S
O177        C185   1.260       .  A
O178       Cr195   2.009       .  S
O178        C179   1.265       .  A
C179        O180   1.259       .  A
C179        C945   1.435       .  S
O180       Cr196   1.977       .  S
O181       Cr196   2.010       .  S
O181        C182   1.265       .  A
C182        O183   1.258       .  A
C182       C1069   1.437       .  S
O183       Cr197   1.977       .  S
O184       Cr197   2.010       .  S
O184        C185   1.265       .  A
C185        C941   1.438       .  S
O186       Cr195   2.010       .  S
O186        C194   1.264       .  A
O187       Cr195   1.978       .  S
O187        C188   1.258       .  A
C188        O189   1.264       .  A
C188        C960   1.436       .  S
O189       Cr196   2.009       .  S
O190       Cr196   1.974       .  S
O190        C191   1.257       .  A
C191        O192   1.264       .  A
C191        C953   1.435       .  S
O192       Cr197   2.010       .  S
O193       Cr197   1.976       .  S
O193        C194   1.258       .  A
C194        C949   1.437       .  S
Cr195       O198   1.775       .  S
Cr196       O198   1.775       .  S
Cr197       O198   1.774       .  S
O199       Cr217   1.978       .  S
O199        C207   1.259       .  A
O200       Cr217   2.011       .  S
O200        C201   1.265       .  A
C201        O202   1.259       .  A
C201        C925   1.436       .  S
O202       Cr218   1.977       .  S
O203       Cr218   2.010       .  S
O203        C204   1.265       .  A
C204        O205   1.259       .  A
C204       C1048   1.436       .  S
O205       Cr219   1.977       .  S
O206       Cr219   2.009       .  S
O206        C207   1.265       .  A
C207        C929   1.436       .  S
O208       Cr217   2.010       .  S
O208        C216   1.264       .  A
O209       Cr217   1.977       .  S
O209        C210   1.258       .  A
C210        O211   1.264       .  A
C210        C957   1.436       .  S
O211       Cr218   2.009       .  S
O212       Cr218   1.974       .  S
O212        C213   1.257       .  A
C213        O214   1.264       .  A
C213        C933   1.433       .  S
O214       Cr219   2.009       .  S
O215       Cr219   1.975       .  S
O215        C216   1.257       .  A
C216        C940   1.435       .  S
Cr217       O220   1.773       .  S
Cr218       O220   1.773       .  S
Cr219       O220   1.774       .  S
O221       Cr239   2.012       .  S
O221        C229   1.265       .  A
O222       Cr239   1.978       .  S
O222        C223   1.258       .  A
C223        O224   1.264       .  A
C223        C917   1.436       .  S
O224       Cr240   2.009       .  S
O225       Cr240   1.977       .  S
O225        C226   1.259       .  A
C226        O227   1.266       .  A
C226        C916   1.437       .  S
O227       Cr241   2.012       .  S
O228       Cr241   1.977       .  S
O228        C229   1.259       .  A
C229       C1033   1.438       .  S
O230       Cr239   1.975       .  S
O230        C238   1.257       .  A
O231       Cr239   2.012       .  S
O231        C232   1.265       .  A
C232        O233   1.258       .  A
C232        C937   1.435       .  S
O233       Cr240   1.974       .  S
O234       Cr240   2.010       .  S
O234        C235   1.264       .  A
C235        O236   1.258       .  A
C235        C924   1.436       .  S
O236       Cr241   1.978       .  S
O237       Cr241   2.010       .  S
O237        C238   1.264       .  A
C238        C956   1.435       .  S
Cr239       O242   1.774       .  S
Cr240       O242   1.774       .  S
Cr241       O242   1.774       .  S
O243       Cr261   2.010       .  S
O243        C251   1.265       .  A
O244       Cr261   1.978       .  S
O244        C245   1.259       .  A
C245        O246   1.265       .  A
C245       C1020   1.437       .  S
O246       Cr262   2.010       .  S
O247       Cr262   1.976       .  S
O247        C248   1.258       .  A
C248        O249   1.265       .  A
C248        C909   1.436       .  S
O249       Cr263   2.010       .  S
O250       Cr263   1.980       .  S
O250        C251   1.259       .  A
C251        C905   1.438       .  S
O252       Cr261   1.978       .  S
O252        C260   1.258       .  A
O253       Cr261   2.009       .  S
O253        C254   1.264       .  A
C254        O255   1.257       .  A
C254        C936   1.433       .  S
O255       Cr262   1.973       .  S
O256       Cr262   2.011       .  S
O256        C257   1.264       .  A
C257        O258   1.258       .  A
C257        C952   1.437       .  S
O258       Cr263   1.977       .  S
O259       Cr263   2.009       .  S
O259        C260   1.264       .  A
C260        C921   1.436       .  S
Cr261       O264   1.775       .  S
Cr262       O264   1.775       .  S
Cr263       O264   1.774       .  S
O265       Cr283   1.976       .  S
O265        C273   1.259       .  A
O266       Cr283   2.008       .  S
O266        C267   1.264       .  A
C267        O268   1.259       .  A
C267        C889   1.436       .  S
O268       Cr284   1.978       .  S
O269       Cr284   2.010       .  S
O269        C270   1.265       .  A
C270        O271   1.259       .  A
C270       C1004   1.438       .  S
O271       Cr285   1.979       .  S
O272       Cr285   2.009       .  S
O272        C273   1.265       .  A
C273        C948   1.435       .  S
O274       Cr283   2.009       .  S
O274        C282   1.264       .  A
O275       Cr283   1.975       .  S
O275        C276   1.258       .  A
C276        O277   1.264       .  A
C276        C901   1.435       .  S
O277       Cr284   2.011       .  S
O278       Cr284   1.976       .  S
O278        C279   1.257       .  A
C279        O280   1.264       .  A
C279        C896   1.435       .  S
O280       Cr285   2.009       .  S
O281       Cr285   1.977       .  S
O281        C282   1.258       .  A
C282        C900   1.435       .  S
Cr283       O286   1.774       .  S
Cr284       O286   1.774       .  S
Cr285       O286   1.774       .  S
O287       Cr305   2.012       .  S
O287        C295   1.265       .  A
O288       Cr305   1.978       .  S
O288        C289   1.259       .  A
C289        O290   1.265       .  A
C289        C877   1.438       .  S
O290       Cr306   2.011       .  S
O291       Cr306   1.976       .  S
O291        C292   1.258       .  A
C292        O293   1.264       .  A
C292        C964   1.434       .  S
O293       Cr307   2.007       .  S
O294       Cr307   1.978       .  S
O294        C295   1.259       .  A
C295        C908   1.438       .  S
O296       Cr305   1.978       .  S
O296        C304   1.258       .  A
O297       Cr305   2.011       .  S
O297        C298   1.264       .  A
C298        O299   1.257       .  A
C298        C904   1.435       .  S
O299       Cr306   1.974       .  S
O300       Cr306   2.010       .  S
O300        C301   1.264       .  A
C301        O302   1.257       .  A
C301        C881   1.434       .  S
O302       Cr307   1.974       .  S
O303       Cr307   2.007       .  S
O303        C304   1.263       .  A
C304        C888   1.435       .  S
Cr305       O308   1.773       .  S
Cr306       O308   1.774       .  S
Cr307       O308   1.775       .  S
O309       Cr327   1.976       .  S
O309        C317   1.259       .  A
O310       Cr327   2.010       .  S
O310        C311   1.265       .  A
C311        O312   1.259       .  A
C311        C928   1.436       .  S
O312       Cr328   1.978       .  S
O313       Cr328   2.009       .  S
O313        C314   1.264       .  A
C314        O315   1.258       .  A
C314        C869   1.436       .  S
O315       Cr329   1.976       .  S
O316       Cr329   2.011       .  S
O316        C317   1.265       .  A
C317        C969   1.437       .  S
O318       Cr327   2.009       .  S
O318        C326   1.264       .  A
O319       Cr327   1.977       .  S
O319        C320   1.258       .  A
C320        O321   1.263       .  A
C320        C897   1.435       .  S
O321       Cr328   2.009       .  S
O322       Cr328   1.974       .  S
O322        C323   1.257       .  A
C323        O324   1.264       .  A
C323        C873   1.434       .  S
O324       Cr329   2.010       .  S
O325       Cr329   1.973       .  S
O325        C326   1.257       .  A
C326        C884   1.433       .  S
Cr327       O330   1.773       .  S
Cr328       O330   1.774       .  S
Cr329       O330   1.774       .  S
O331       Cr349   2.012       .  S
O331        C339   1.265       .  A
O332       Cr349   1.978       .  S
O332        C333   1.259       .  A
C333        O334   1.265       .  A
C333        C984   1.437       .  S
O334       Cr350   2.011       .  S
O335       Cr350   1.978       .  S
O335        C336   1.259       .  A
C336        O337   1.265       .  A
C336        C913   1.437       .  S
O337       Cr351   2.010       .  S
O338       Cr351   1.978       .  S
O338        C339   1.259       .  A
C339        C865   1.438       .  S
O340       Cr349   1.975       .  S
O340        C348   1.257       .  A
O341       Cr349   2.011       .  S
O341        C342   1.264       .  A
C342        O343   1.257       .  A
C342        C893   1.435       .  S
O343       Cr350   1.975       .  S
O344       Cr350   2.009       .  S
O344        C345   1.264       .  A
C345        O346   1.258       .  A
C345        C885   1.435       .  S
O346       Cr351   1.976       .  S
O347       Cr351   2.009       .  S
O347        C348   1.264       .  A
C348        C876   1.434       .  S
Cr349       O352   1.774       .  S
Cr350       O352   1.774       .  S
Cr351       O352   1.774       .  S
O353       Cr371   2.010       .  S
O353        C361   1.265       .  A
O354       Cr371   1.975       .  S
O354        C355   1.258       .  A
C355        O356   1.265       .  A
C355        C845   1.436       .  S
O356       Cr372   2.012       .  S
O357       Cr372   1.977       .  S
O357        C358   1.258       .  A
C358        O359   1.264       .  A
C358       C1068   1.436       .  S
O359       Cr373   2.009       .  S
O360       Cr373   1.978       .  S
O360        C361   1.259       .  A
C361        C849   1.437       .  S
O362       Cr371   1.977       .  S
O362        C370   1.258       .  A
O363       Cr371   2.010       .  S
O363        C364   1.264       .  A
C364        O365   1.257       .  A
C364        C864   1.434       .  S
O365       Cr372   1.975       .  S
O366       Cr372   2.012       .  S
O366        C367   1.265       .  A
C367        O368   1.258       .  A
C367        C853   1.436       .  S
O368       Cr373   1.975       .  S
O369       Cr373   2.012       .  S
O369        C370   1.265       .  A
C370        C857   1.437       .  S
Cr371       O374   1.774       .  S
Cr372       O374   1.775       .  S
Cr373       O374   1.773       .  S
O375       Cr393   1.978       .  S
O375        C383   1.259       .  A
O376       Cr393   2.011       .  S
O376        C377   1.265       .  A
C377        O378   1.259       .  A
C377        C829   1.436       .  S
O378       Cr394   1.976       .  S
O379       Cr394   2.009       .  S
O379        C380   1.264       .  A
C380        O381   1.258       .  A
C380        C833   1.436       .  S
O381       Cr395   1.978       .  S
O382       Cr395   2.011       .  S
O382        C383   1.265       .  A
C383       C1040   1.437       .  S
O384       Cr393   2.011       .  S
O384        C392   1.264       .  A
O385       Cr393   1.977       .  S
O385        C386   1.258       .  A
C386        O387   1.263       .  A
C386        C837   1.435       .  S
O387       Cr394   2.008       .  S
O388       Cr394   1.973       .  S
O388        C389   1.257       .  A
C389        O390   1.264       .  A
C389        C861   1.434       .  S
O390       Cr395   2.010       .  S
O391       Cr395   1.977       .  S
O391        C392   1.258       .  A
C392        C844   1.437       .  S
Cr393       O396   1.774       .  S
Cr394       O396   1.774       .  S
Cr395       O396   1.774       .  S
O397       Cr415   2.012       .  S
O397        C405   1.265       .  A
O398       Cr415   1.977       .  S
O398        C399   1.258       .  A
C399        O400   1.264       .  A
C399       C1056   1.436       .  S
O400       Cr416   2.010       .  S
O401       Cr416   1.977       .  S
O401        C402   1.259       .  A
C402        O403   1.266       .  A
C402        C824   1.437       .  S
O403       Cr417   2.013       .  S
O404       Cr417   1.978       .  S
O404        C405   1.259       .  A
C405        C817   1.438       .  S
O406       Cr415   1.974       .  S
O406        C414   1.257       .  A
O407       Cr415   2.014       .  S
O407        C408   1.265       .  A
C408        O409   1.258       .  A
C408        C841   1.437       .  S
O409       Cr416   1.974       .  S
O410       Cr416   2.009       .  S
O410        C411   1.263       .  A
C411        O412   1.258       .  A
C411        C860   1.437       .  S
O412       Cr417   1.979       .  S
O413       Cr417   2.013       .  S
O413        C414   1.265       .  A
C414        C825   1.437       .  S
Cr415       O418   1.774       .  S
Cr416       O418   1.774       .  S
Cr417       O418   1.774       .  S
O419       Cr437   1.977       .  S
O419        C427   1.259       .  A
O420       Cr437   2.011       .  S
O420        C421   1.265       .  A
C421        O422   1.259       .  A
C421        C813   1.437       .  S
O422       Cr438   1.978       .  S
O423       Cr438   2.008       .  S
O423        C424   1.264       .  A
C424        O425   1.258       .  A
C424        C812   1.437       .  S
O425       Cr439   1.979       .  S
O426       Cr439   2.011       .  S
O426        C427   1.265       .  A
C427       C1028   1.437       .  S
O428       Cr437   2.010       .  S
O428        C436   1.264       .  A
O429       Cr437   1.977       .  S
O429        C430   1.258       .  A
C430        O431   1.263       .  A
C430        C840   1.435       .  S
O431       Cr438   2.008       .  S
O432       Cr438   1.976       .  S
O432        C433   1.258       .  A
C433        O434   1.265       .  A
C433        C828   1.437       .  S
O434       Cr439   2.013       .  S
O435       Cr439   1.976       .  S
O435        C436   1.258       .  A
C436        C856   1.436       .  S
Cr437       O440   1.775       .  S
Cr438       O440   1.775       .  S
Cr439       O440   1.774       .  S
O441       Cr459   2.011       .  S
O441        C449   1.265       .  A
O442       Cr459   1.977       .  S
O442        C443   1.259       .  A
C443        O444   1.264       .  A
C443        C796   1.436       .  S
O444       Cr460   2.009       .  S
O445       Cr460   1.977       .  S
O445        C446   1.259       .  A
C446        O447   1.265       .  A
C446        C821   1.437       .  S
O447       Cr461   2.010       .  S
O448       Cr461   1.980       .  S
O448        C449   1.259       .  A
C449        C976   1.439       .  S
O450       Cr459   1.976       .  S
O450        C458   1.258       .  A
O451       Cr459   2.011       .  S
O451        C452   1.264       .  A
C452        O453   1.257       .  A
C452        C805   1.435       .  S
O453       Cr460   1.974       .  S
O454       Cr460   2.009       .  S
O454        C455   1.264       .  A
C455        O456   1.258       .  A
C455        C804   1.437       .  S
O456       Cr461   1.979       .  S
O457       Cr461   2.011       .  S
O457        C458   1.264       .  A
C458        C800   1.437       .  S
Cr459       O462   1.775       .  S
Cr460       O462   1.775       .  S
Cr461       O462   1.775       .  S
O463       Cr481   1.977       .  S
O463        C471   1.259       .  A
O464       Cr481   2.012       .  S
O464        C465   1.266       .  A
C465        O466   1.259       .  A
C465        C816   1.436       .  S
O466       Cr482   1.977       .  S
O467       Cr482   2.011       .  S
O467        C468   1.264       .  A
C468        O469   1.258       .  A
C468        C968   1.437       .  S
O469       Cr483   1.977       .  S
O470       Cr483   2.010       .  S
O470        C471   1.265       .  A
C471        C781   1.437       .  S
O472       Cr481   2.010       .  S
O472        C480   1.264       .  A
O473       Cr481   1.979       .  S
O473        C474   1.258       .  A
C474        O475   1.263       .  A
C474        C792   1.436       .  S
O475       Cr482   2.009       .  S
O476       Cr482   1.975       .  S
O476        C477   1.258       .  A
C477        O478   1.265       .  A
C477        C788   1.437       .  S
O478       Cr483   2.013       .  S
O479       Cr483   1.974       .  S
O479        C480   1.257       .  A
C480        C808   1.435       .  S
Cr481       O484   1.774       .  S
Cr482       O484   1.774       .  S
Cr483       O484   1.774       .  S
O485       Cr503   2.012       .  S
O485        C493   1.265       .  A
O486       Cr503   1.977       .  S
O486        C487   1.259       .  A
C487        O488   1.266       .  A
C487        C997   1.438       .  S
O488       Cr504   2.013       .  S
O489       Cr504   1.977       .  S
O489        C490   1.258       .  A
C490        O491   1.264       .  A
C490        C773   1.436       .  S
O491       Cr505   2.009       .  S
O492       Cr505   1.978       .  S
O492        C493   1.259       .  A
C493        C852   1.437       .  S
O494       Cr503   1.978       .  S
O494        C502   1.258       .  A
O495       Cr503   2.011       .  S
O495        C496   1.264       .  A
C496        O497   1.257       .  A
C496        C785   1.437       .  S
O497       Cr504   1.975       .  S
O498       Cr504   2.012       .  S
O498        C499   1.265       .  A
C499        O500   1.258       .  A
C499        C780   1.436       .  S
O500       Cr505   1.975       .  S
O501       Cr505   2.010       .  S
O501        C502   1.264       .  A
C502        C801   1.437       .  S
Cr503       O506   1.774       .  S
Cr504       O506   1.774       .  S
Cr505       O506   1.775       .  S
O507       Cr525   1.977       .  S
O507        C515   1.258       .  A
O508       Cr525   2.010       .  S
O508        C509   1.265       .  A
C509        O510   1.259       .  A
C509        C832   1.436       .  S
O510       Cr526   1.977       .  S
O511       Cr526   2.007       .  S
O511        C512   1.264       .  A
C512        O513   1.258       .  A
C512        C988   1.436       .  S
O513       Cr527   1.978       .  S
O514       Cr527   2.011       .  S
O514        C515   1.265       .  A
C515        C769   1.437       .  S
O516       Cr525   2.011       .  S
O516        C524   1.264       .  A
O517       Cr525   1.977       .  S
O517        C518   1.258       .  A
C518        O519   1.263       .  A
C518        C789   1.436       .  S
O519       Cr526   2.008       .  S
O520       Cr526   1.976       .  S
O520        C521   1.258       .  A
C521        O522   1.265       .  A
C521        C797   1.437       .  S
O522       Cr527   2.012       .  S
O523       Cr527   1.976       .  S
O523        C524   1.258       .  A
C524        C777   1.436       .  S
Cr525       O528   1.774       .  S
Cr526       O528   1.775       .  S
Cr527       O528   1.774       .  S
O529       Cr547   1.977       .  S
O529        C537   1.259       .  A
O530       Cr547   2.011       .  S
O530        C531   1.265       .  A
C531        O532   1.259       .  A
C531        C892   1.436       .  S
O532       Cr548   1.977       .  S
O533       Cr548   2.009       .  S
O533        C534   1.264       .  A
C534        O535   1.259       .  A
C534        C753   1.437       .  S
O535       Cr549   1.978       .  S
O536       Cr549   2.010       .  S
O536        C537   1.265       .  A
C537        C776   1.436       .  S
O538       Cr547   2.009       .  S
O538        C546   1.264       .  A
O539       Cr547   1.979       .  S
O539        C540   1.258       .  A
C540        O541   1.264       .  A
C540        C757   1.437       .  S
O541       Cr548   2.010       .  S
O542       Cr548   1.973       .  S
O542        C543   1.257       .  A
C543        O544   1.264       .  A
C543        C764   1.433       .  S
O544       Cr549   2.010       .  S
O545       Cr549   1.974       .  S
O545        C546   1.257       .  A
C546        C765   1.434       .  S
Cr547       O550   1.773       .  S
Cr548       O550   1.773       .  S
Cr549       O550   1.774       .  S
O551       Cr569   2.011       .  S
O551        C559   1.265       .  A
O552       Cr569   1.977       .  S
O552        C553   1.259       .  A
C553        O554   1.265       .  A
C553        C744   1.436       .  S
O554       Cr570   2.010       .  S
O555       Cr570   1.977       .  S
O555        C556   1.258       .  A
C556        O557   1.265       .  A
C556        C772   1.436       .  S
O557       Cr571   2.009       .  S
O558       Cr571   1.978       .  S
O558        C559   1.259       .  A
C559        C868   1.438       .  S
O560       Cr569   1.976       .  S
O560        C568   1.258       .  A
O561       Cr569   2.009       .  S
O561        C562   1.263       .  A
C562        O563   1.257       .  A
C562        C745   1.434       .  S
O563       Cr570   1.975       .  S
O564       Cr570   2.010       .  S
O564        C565   1.264       .  A
C565        O566   1.257       .  A
C565        C768   1.434       .  S
O566       Cr571   1.974       .  S
O567       Cr571   2.008       .  S
O567        C568   1.263       .  A
C568        C749   1.434       .  S
Cr569       O572   1.774       .  S
Cr570       O572   1.774       .  S
Cr571       O572   1.774       .  S
O573       Cr591   2.010       .  S
O573        C581   1.265       .  A
O574       Cr591   1.975       .  S
O574        C575   1.258       .  A
C575        O576   1.265       .  A
C575        C736   1.437       .  S
O576       Cr592   2.012       .  S
O577       Cr592   1.977       .  S
O577        C578   1.258       .  A
C578        O579   1.264       .  A
C578        C793   1.436       .  S
O579       Cr593   2.008       .  S
O580       Cr593   1.976       .  S
O580        C581   1.258       .  A
C581        C872   1.435       .  S
O582       Cr591   1.975       .  S
O582        C590   1.257       .  A
O583       Cr591   2.009       .  S
O583        C584   1.264       .  A
C584        O585   1.257       .  A
C584        C761   1.433       .  S
O585       Cr592   1.974       .  S
O586       Cr592   2.012       .  S
O586        C587   1.265       .  A
C587        O588   1.258       .  A
C587        C737   1.436       .  S
O588       Cr593   1.975       .  S
O589       Cr593   2.009       .  S
O589        C590   1.264       .  A
C590        C752   1.434       .  S
Cr591       O594   1.774       .  S
Cr592       O594   1.774       .  S
Cr593       O594   1.774       .  S
O595       Cr613   1.978       .  S
O595        C603   1.259       .  A
O596       Cr613   2.012       .  S
O596        C597   1.265       .  A
C597        O598   1.259       .  A
C597        C880   1.438       .  S
O598       Cr614   1.978       .  S
O599       Cr614   2.009       .  S
O599        C600   1.265       .  A
C600        O601   1.259       .  A
C600        C729   1.436       .  S
O601       Cr615   1.978       .  S
O602       Cr615   2.010       .  S
O602        C603   1.265       .  A
C603        C784   1.437       .  S
O604       Cr613   2.011       .  S
O604        C612   1.264       .  A
O605       Cr613   1.977       .  S
O605        C606   1.258       .  A
C606        O607   1.264       .  A
C606        C760   1.437       .  S
O607       Cr614   2.010       .  S
O608       Cr614   1.973       .  S
O608        C609   1.257       .  A
C609        O610   1.264       .  A
C609        C748   1.434       .  S
O610       Cr615   2.009       .  S
O611       Cr615   1.976       .  S
O611        C612   1.258       .  A
C612        C740   1.436       .  S
Cr613       O616   1.774       .  S
Cr614       O616   1.774       .  S
Cr615       O616   1.775       .  S
O617       Cr635   2.012       .  S
O617        C625   1.266       .  A
O618       Cr635   1.977       .  S
O618        C619   1.259       .  A
C619        O620   1.264       .  A
C619        C741   1.436       .  S
O620       Cr636   2.009       .  S
O621       Cr636   1.977       .  S
O621        C622   1.259       .  A
C622        O623   1.265       .  A
C622        C920   1.436       .  S
O623       Cr637   2.011       .  S
O624       Cr637   1.974       .  S
O624        C625   1.258       .  A
C625        C836   1.436       .  S
O626       Cr635   1.975       .  S
O626        C634   1.257       .  A
O627       Cr635   2.011       .  S
O627        C628   1.265       .  A
C628        O629   1.258       .  A
C628        C725   1.435       .  S
O629       Cr636   1.974       .  S
O630       Cr636   2.010       .  S
O630        C631   1.264       .  A
C631        O632   1.257       .  A
C631        C717   1.433       .  S
O632       Cr637   1.973       .  S
O633       Cr637   2.010       .  S
O633        C634   1.264       .  A
C634        C724   1.435       .  S
Cr635       O638   1.773       .  S
Cr636       O638   1.774       .  S
Cr637       O638   1.773       .  S
O639       Cr657   1.977       .  S
O639        C647   1.259       .  A
O640       Cr657   2.008       .  S
O640        C641   1.264       .  A
C641        O642   1.259       .  A
C641        C732   1.436       .  S
O642       Cr658   1.979       .  S
O643       Cr658   2.011       .  S
O643        C644   1.265       .  A
C644        O645   1.259       .  A
C644        C912   1.436       .  S
O645       Cr659   1.977       .  S
O646       Cr659   2.011       .  S
O646        C647   1.265       .  A
C647        C809   1.437       .  S
O648       Cr657   2.010       .  S
O648        C656   1.264       .  A
O649       Cr657   1.974       .  S
O649        C650   1.257       .  A
C650        O651   1.265       .  A
C650        C728   1.435       .  S
O651       Cr658   2.011       .  S
O652       Cr658   1.977       .  S
O652        C653   1.258       .  A
C653        O654   1.264       .  A
C653        C713   1.436       .  S
O654       Cr659   2.010       .  S
O655       Cr659   1.977       .  S
O655        C656   1.258       .  A
C656        C712   1.436       .  S
Cr657       O660   1.774       .  S
Cr658       O660   1.774       .  S
Cr659       O660   1.773       .  S
O661       Cr679   1.980       .  S
O661        C669   1.259       .  A
O662       Cr679   2.008       .  S
O662        C663   1.265       .  A
C663        O664   1.259       .  A
C663        C848   1.436       .  S
O664       Cr680   1.978       .  S
O665       Cr680   2.010       .  S
O665        C666   1.265       .  A
C666        O667   1.259       .  A
C666        C756   1.437       .  S
O667       Cr681   1.979       .  S
O668       Cr681   2.009       .  S
O668        C669   1.264       .  A
C669        C944   1.438       .  S
O670       Cr679   2.009       .  S
O670        C678   1.264       .  A
O671       Cr679   1.975       .  S
O671        C672   1.257       .  A
C672        O673   1.264       .  A
C672        C721   1.435       .  S
O673       Cr680   2.009       .  S
O674       Cr680   1.979       .  S
O674        C675   1.258       .  A
C675        O676   1.263       .  A
C675        C705   1.437       .  S
O676       Cr681   2.009       .  S
O677       Cr681   1.977       .  S
O677        C678   1.258       .  A
C678        C716   1.436       .  S
Cr679       O682   1.775       .  S
Cr680       O682   1.775       .  S
Cr681       O682   1.775       .  S
O683       Cr701   1.979       .  S
O683        C691   1.259       .  A
O684       Cr701   2.009       .  S
O684        C685   1.265       .  A
C685        O686   1.259       .  A
C685        C733   1.436       .  S
O686       Cr702   1.978       .  S
O687       Cr702   2.009       .  S
O687        C688   1.265       .  A
C688        O689   1.259       .  A
C688        C932   1.436       .  S
O689       Cr703   1.978       .  S
O690       Cr703   2.010       .  S
O690        C691   1.265       .  A
C691        C820   1.438       .  S
O692       Cr701   2.010       .  S
O692        C700   1.264       .  A
O693       Cr701   1.977       .  S
O693        C694   1.258       .  A
C694        O695   1.264       .  A
C694        C708   1.437       .  S
O695       Cr702   2.010       .  S
O696       Cr702   1.974       .  S
O696        C697   1.257       .  A
C697        O698   1.264       .  A
C697        C720   1.433       .  S
O698       Cr703   2.009       .  S
O699       Cr703   1.978       .  S
O699        C700   1.258       .  A
C700        C709   1.436       .  S
Cr701       O704   1.774       .  S
Cr702       O704   1.775       .  S
Cr703       O704   1.775       .  S
C705        C706   1.207       .  T
C706        C707   1.414       .  S
C707        C708   1.207       .  T
C709        C710   1.207       .  T
C710        C711   1.413       .  S
C711        C712   1.207       .  T
C713        C714   1.206       .  T
C714        C715   1.413       .  S
C715        C716   1.206       .  T
C717        C718   1.205       .  T
C718        C719   1.410       .  S
C719        C720   1.205       .  T
C721        C722   1.206       .  T
C722        C723   1.412       .  S
C723        C724   1.206       .  T
C725        C726   1.206       .  T
C726        C727   1.412       .  S
C727        C728   1.206       .  T
C729        C730   1.206       .  T
C730        C731   1.413       .  S
C731        C732   1.206       .  T
C733        C734   1.206       .  T
C734        C735   1.413   1_565  S
C735        C736   1.206       .  T
C737        C738   1.206       .  T
C738        C739   1.413       .  S
C739        C740   1.206       .  T
C741        C742   1.206       .  T
C742        C743   1.413       .  S
C743        C744   1.206       .  T
C745        C746   1.205       .  T
C746        C747   1.411       .  S
C747        C748   1.205       .  T
C749        C750   1.205       .  T
C750        C751   1.411       .  S
C751        C752   1.205       .  T
C753        C754   1.207       .  T
C754        C755   1.414   1_545  S
C755        C756   1.207       .  T
C757        C758   1.207       .  T
C758        C759   1.414       .  S
C759        C760   1.207       .  T
C761        C762   1.205       .  T
C762        C763   1.410       .  S
C763        C764   1.205       .  T
C765        C766   1.205       .  T
C766        C767   1.411       .  S
C767        C768   1.205       .  T
C769        C770   1.206       .  T
C770        C771   1.414   1_655  S
C771        C772   1.206       .  T
C773        C774   1.206       .  T
C774        C775   1.413   1_655  S
C775        C776   1.206       .  T
C777        C778   1.207       .  T
C778        C779   1.413       .  S
C779        C780   1.207       .  T
C781        C782   1.206       .  T
C782        C783   1.414       .  S
C783        C784   1.206       .  T
C785        C786   1.207       .  T
C786        C787   1.414       .  S
C787        C788   1.207       .  T
C789        C790   1.206       .  T
C790        C791   1.413       .  S
C791        C792   1.206       .  T
C793        C794   1.206       .  T
C794        C795   1.413       .  S
C795        C796   1.206       .  T
C797        C798   1.207       .  T
C798        C799   1.413       .  S
C799        C800   1.207       .  T
C801        C802   1.207       .  T
C802        C803   1.414       .  S
C803        C804   1.207       .  T
C805        C806   1.206       .  T
C806        C807   1.412       .  S
C807        C808   1.206       .  T
C809        C810   1.207       .  T
C810        C811   1.414       .  S
C811        C812   1.207       .  T
C813        C814   1.206       .  T
C814        C815   1.413       .  S
C815        C816   1.206       .  T
C817        C818   1.207       .  T
C818        C819   1.415       .  S
C819        C820   1.207       .  T
C821        C822   1.207       .  T
C822        C823   1.414   1_545  S
C823        C824   1.207       .  T
C825        C826   1.207       .  T
C826        C827   1.414       .  S
C827        C828   1.207       .  T
C829        C830   1.206       .  T
C830        C831   1.413       .  S
C831        C832   1.206       .  T
C833        C834   1.206       .  T
C834        C835   1.413   1_655  S
C835        C836   1.206       .  T
C837        C838   1.206       .  T
C838        C839   1.412       .  S
C839        C840   1.206       .  T
C841        C842   1.207       .  T
C842        C843   1.414       .  S
C843        C844   1.207       .  T
C845        C846   1.206       .  T
C846        C847   1.413   1_655  S
C847        C848   1.206       .  T
C849        C850   1.207       .  T
C850        C851   1.414   1_565  S
C851        C852   1.207       .  T
C853        C854   1.206       .  T
C854        C855   1.413       .  S
C855        C856   1.206       .  T
C857        C858   1.207       .  T
C858        C859   1.414       .  S
C859        C860   1.207       .  T
C861        C862   1.205       .  T
C862        C863   1.411       .  S
C863        C864   1.205       .  T
C865        C866   1.207       .  T
C866        C867   1.415   1_556  S
C867        C868   1.207       .  T
C869        C870   1.206       .  T
C870        C871   1.413   1_556  S
C871        C872   1.206       .  T
C873        C874   1.205       .  T
C874        C875   1.411       .  S
C875        C876   1.205       .  T
C877        C878   1.207       .  T
C878        C879   1.415       .  S
C879        C880   1.207       .  T
C881        C882   1.205       .  T
C882        C883   1.410       .  S
C883        C884   1.205       .  T
C885        C886   1.206       .  T
C886        C887   1.412       .  S
C887        C888   1.206       .  T
C889        C890   1.206       .  T
C890        C891   1.413       .  S
C891        C892   1.206       .  T
C893        C894   1.206       .  T
C894        C895   1.412       .  S
C895        C896   1.206       .  T
C897        C898   1.206       .  T
C898        C899   1.412       .  S
C899        C900   1.206       .  T
C901        C902   1.206       .  T
C902        C903   1.412       .  S
C903        C904   1.206       .  T
C905        C906   1.207       .  T
C906        C907   1.415       .  S
C907        C908   1.207       .  T
C909        C910   1.206       .  T
C910        C911   1.413       .  S
C911        C912   1.206       .  T
C913        C914   1.207       .  T
C914        C915   1.414       .  S
C915        C916   1.207       .  T
C917        C918   1.206       .  T
C918        C919   1.413   1_556  S
C919        C920   1.206       .  T
C921        C922   1.207       .  T
C922        C923   1.413       .  S
C923        C924   1.207       .  T
C925        C926   1.206       .  T
C926        C927   1.413   1_565  S
C927        C928   1.206       .  T
C929        C930   1.206       .  T
C930        C931   1.413   1_556  S
C931        C932   1.206       .  T
C933        C934   1.205       .  T
C934        C935   1.410       .  S
C935        C936   1.205       .  T
C937        C938   1.206       .  T
C938        C939   1.412       .  S
C939        C940   1.206       .  T
C941        C942   1.207       .  T
C942        C943   1.415       .  S
C943        C944   1.207       .  T
C945        C946   1.205       .  T
C946        C947   1.412   1_565  S
C947        C948   1.205       .  T
C949        C950   1.207       .  T
C950        C951   1.413       .  S
C951        C952   1.207       .  T
C953        C954   1.206       .  T
C954        C955   1.412       .  S
C955        C956   1.206       .  T
C957        C958   1.206       .  T
C958        C959   1.413       .  S
C959        C960   1.206       .  T
C961        C962   1.205       .  T
C962        C963   1.411       .  S
C963        C964   1.205       .  T
C965        C966   1.207       .  T
C966        C967   1.414       .  S
C967        C968   1.207       .  T
C969        C970   1.206       .  T
C970        C971   1.414       .  S
C971        C972   1.206       .  T
C973        C974   1.208       .  T
C974        C975   1.416   1_556  S
C975        C976   1.208       .  T
C977        C978   1.205       .  T
C978        C979   1.410       .  S
C979        C980   1.205       .  T
C981        C982   1.207       .  T
C982        C983   1.415   1_655  S
C983        C984   1.207       .  T
C985        C986   1.206       .  T
C986        C987   1.413   1_556  S
C987        C988   1.206       .  T
C989        C990   1.205       .  T
C990        C991   1.411       .  S
C991        C992   1.205       .  T
C993        C994   1.206       .  T
C994        C995   1.413       .  S
C995        C996   1.206       .  T
C997        C998   1.207       .  T
C998        C999   1.415       .  S
C999       C1000   1.207       .  T
C1001      C1002   1.207       .  T
C1002      C1003   1.414   1_655  S
C1003      C1004   1.207       .  T
C1005      C1006   1.206       .  T
C1006      C1007   1.413       .  S
C1007      C1008   1.206       .  T
C1009      C1010   1.205       .  T
C1010      C1011   1.411       .  S
C1011      C1012   1.205       .  T
C1013      C1014   1.207       .  T
C1014      C1015   1.414       .  S
C1015      C1016   1.207       .  T
C1017      C1018   1.206       .  T
C1018      C1019   1.413       .  S
C1019      C1020   1.206       .  T
C1021      C1022   1.206       .  T
C1022      C1023   1.413       .  S
C1023      C1024   1.206       .  T
C1025      C1026   1.206       .  T
C1026      C1027   1.414       .  S
C1027      C1028   1.207       .  T
C1029      C1030   1.205       .  T
C1030      C1031   1.412       .  S
C1031      C1032   1.205       .  T
C1033      C1034   1.207       .  T
C1034      C1035   1.415   1_455  S
C1035      C1036   1.207       .  T
C1037      C1038   1.207       .  T
C1038      C1039   1.414   1_556  S
C1039      C1040   1.207       .  T
C1041      C1042   1.206       .  T
C1042      C1043   1.411       .  S
C1043      C1044   1.205       .  T
C1045      C1046   1.206       .  T
C1046      C1047   1.413       .  S
C1047      C1048   1.206       .  T
C1049      C1050   1.206       .  T
C1050      C1051   1.413   1_565  S
C1051      C1052   1.206       .  T
C1053      C1054   1.206       .  T
C1054      C1055   1.413   1_556  S
C1055      C1056   1.206       .  T
C1057      C1058   1.206       .  T
C1058      C1059   1.412       .  S
C1059      C1060   1.206       .  T
C1061      C1062   1.206       .  T
C1062      C1063   1.412       .  S
C1063      C1064   1.206       .  T
C1065      C1066   1.206       .  T
C1066      C1067   1.413       .  S
C1067      C1068   1.206       .  T
C1069      C1070   1.207       .  T
C1070      C1071   1.414   1_455  S
C1071      C1072   1.207       .  T
C1073      C1074   1.207       .  T
C1074      C1075   1.414   1_565  S
C1075      C1076   1.207       .  T
C1077      C1078   1.205       .  T
C1078      C1079   1.411       .  S
C1079      C1080   1.205       .  T
C1081      C1082   1.207       .  T
C1082      C1083   1.414       .  S
C1083      C1084   1.207       .  T
C1085      C1086   1.206       .  T
C1086      C1087   1.412       .  S
C1087      C1088   1.206       .  T
