geometry optimzed in LAMMPS
_audit_creation_date              2020-11-30 
_audit_creation_method            'lammps2cif' 
_symmetry_space_group_name_H-M    'P1' 
_symmetry_Int_Tables_number       1 
_symmetry_cell_setting            triclinic 
loop_ 
_symmetry_equiv_pos_as_xyz 
  x,y,z 
_cell_length_a                    31.01962754 
_cell_length_b                    30.29650821096965 
_cell_length_c                    30.165036735689903 
_cell_angle_alpha                 89.72412384651504 
_cell_angle_beta                  87.68164272767184 
_cell_angle_gamma                 89.31921529279971 
loop_ 
_atom_site_label 
_atom_site_type_symbol 
_atom_site_fract_x 
_atom_site_fract_y 
_atom_site_fract_z 
_atom_site_charge 
O1          O  0.98243007  0.47610084  0.90361955    -0.78300
C2          C  0.00911223  0.38890590  0.01298292     0.82800
O3          O  0.90193326  0.54078189  0.02450576    -0.79400
O4          O  0.02833797  0.49766450  0.10310524    -0.80900
O5          O  0.10826401  0.53925152  0.97128769    -0.80700
O6          O  0.03320955  0.52788606  0.89750713    -0.79300
Zn7        Zn  0.96902036  0.47032312  0.96897710     1.55700
O8          O  0.10847471  0.49146348  0.02727670    -0.80700
Cd9        Cd  0.04324105  0.54854756  0.96000125     1.59700
Cd10       Cd  0.96593940  0.55505474  0.03248202     1.59600
O11         O  0.03078580  0.61595022  0.96469923    -0.80700
O12         O  0.00471066  0.51255978  0.99959220    -1.91200
Cd13       Cd  0.04334823  0.47933287  0.03937948     1.59900
O14         O  0.97664969  0.62053802  0.01504596    -0.80600
O15         O  0.03475607  0.41223592  0.03469879    -0.79300
C16         C  0.88312244  0.51056146  0.00363816     0.83200
C17         C  0.00886338  0.49954983  0.88051708     0.82900
O18         O  0.98222928  0.40668118  0.98715947    -0.78200
C19         C  0.12852723  0.51596469  0.99911205     0.83700
O20         O  0.90461318  0.48176624  0.98094592    -0.78300
C21         C  0.00391282  0.63883650  0.98831103     0.83800
C22         C  0.00201397  0.52550077  0.12097303     0.84200
O23         O  0.97671571  0.54929328  0.09852110    -0.80800
O24         O  0.02115752  0.60570225  0.54336110    -0.78300
C25         C  0.98628617  0.49238303  0.62158225     0.82800
O26         O  0.10808037  0.48294140  0.48500562    -0.79400
O27         O  0.97382547  0.40041625  0.51726087    -0.80900
O28         O  0.90388357  0.54080638  0.47106139    -0.80700
O29         O  0.98173896  0.61508501  0.48415750    -0.79300
Zn30       Zn  0.03371624  0.54039580  0.54566105     1.55700
O31         O  0.89701238  0.47914420  0.51119291    -0.80700
Cd32       Cd  0.97049182  0.55034455  0.46570772     1.59700
Cd33       Cd  0.04542225  0.47075230  0.46842788     1.59600
O34         O  0.99181858  0.54113108  0.40081034    -0.80700
O35         O  0.00240054  0.50747505  0.50294608    -1.91200
Cd36       Cd  0.95909617  0.46598743  0.53035188     1.59900
O37         O  0.04100012  0.48660109  0.40288045    -0.80600
O38         O  0.96019975  0.47193295  0.59777445    -0.79300
C39         C  0.12330416  0.51024225  0.51201021     0.83200
C40         C  0.00167781  0.63083333  0.51658315     0.82900
O41         O  0.01536237  0.51769192  0.60509753    -0.78200
C42         C  0.88062949  0.51071497  0.48921871     0.83700
O43         O  0.09876751  0.53444999  0.53677511    -0.78300
C44         C  0.01909329  0.51488761  0.38165546     0.83800
C45         C  0.00577302  0.38153840  0.49703533     0.84200
O46         O  0.03546509  0.40375459  0.47722634    -0.80800
O47         O  0.53739887  0.58621138  0.03052875    -0.78300
C48         C  0.51353983  0.47203004  0.11882446     0.82800
O49         O  0.60697290  0.46147466  0.96168637    -0.79400
O50         O  0.47973798  0.37958941  0.01282141    -0.80900
O51         O  0.40326522  0.52043577  0.99336729    -0.80700
O52         O  0.48191518  0.59474566  0.98692538    -0.79300
Zn53       Zn  0.54543971  0.51998970  0.03610453     1.55700
O54         O  0.40517032  0.46005869  0.03556892    -0.80700
Cd55       Cd  0.46646183  0.53042083  0.97292551     1.59700
Cd56       Cd  0.54136481  0.45390918  0.95470118     1.59600
O57         O  0.46983202  0.52342967  0.90562259    -0.80700
O58         O  0.50651763  0.48736675  0.00021298    -1.91200
Cd59       Cd  0.47068795  0.44394154  0.03491372     1.59900
O60         O  0.52464429  0.47585204  0.89336534    -0.80600
O61         O  0.48973098  0.44541405  0.09874419    -0.79300
C62         C  0.62761006  0.48258864  0.99027894     0.83200
C63         C  0.51117722  0.61097176  0.01014250     0.82900
O64         O  0.53445897  0.50272510  0.09903842    -0.78200
C65         C  0.38425291  0.49127014  0.01728234     0.83700
O66         O  0.60790229  0.50548995  0.02025802    -0.78300
C67         C  0.49527208  0.50167557  0.87959157     0.83800
C68         C  0.50518339  0.36278096  0.98307253     0.84200
O69         O  0.53000765  0.38676276  0.95866755    -0.80800
O70         O  0.53405654  0.59134172  0.51888241    -0.78300
C71         C  0.50832275  0.49542353  0.61858410     0.82800
O72         O  0.60347183  0.45300521  0.46881224    -0.79400
O73         O  0.47615688  0.38762381  0.53351024    -0.80900
O74         O  0.39914700  0.51816005  0.47884293    -0.80700
O75         O  0.47519213  0.59651314  0.47962134    -0.79300
Zn76       Zn  0.54416316  0.52635700  0.52913546     1.55700
O77         O  0.40108257  0.46486745  0.52986811    -0.80700
Cd78       Cd  0.46466000  0.53057495  0.46602767     1.59700
Cd79       Cd  0.53741385  0.44752329  0.46170739     1.59600
O80         O  0.48067938  0.52151380  0.40009729    -0.80700
O81         O  0.50334742  0.49025384  0.49948428    -1.91200
Cd82       Cd  0.46561500  0.45485132  0.54040897     1.59900
O83         O  0.52553015  0.46280285  0.39735604    -0.80600
O84         O  0.47780483  0.47277179  0.60375933    -0.79300
C85         C  0.62506417  0.48186261  0.48864640     0.83200
C86         C  0.50554293  0.61449001  0.49998059     0.82900
O87         O  0.53588254  0.51536468  0.59364366    -0.78200
C88         C  0.38016184  0.49069127  0.50497951     0.83700
O89         O  0.60640400  0.51235758  0.51141476    -0.78300
C90         C  0.50427655  0.49347120  0.37874063     0.83800
C91         C  0.49795949  0.36447149  0.50526305     0.84200
O92         O  0.52179566  0.38231562  0.47496097    -0.80800
N93         N  0.98938336  0.96629730  0.06115100    -0.36400
N94         N  0.99754602  0.96674125  0.96202633    -0.56900
N95         N  0.99608089  0.06078742  0.96447998    -0.36400
N96         N  0.99445107  0.06044944  0.06339176    -0.56900
C97         C  0.99911826  0.92361792  0.05170795     0.27200
C98         C  0.99687699  0.97264486  0.10473973     0.27200
C99         C  0.00662068  0.05396182  0.92086010     0.27200
C100        C  0.00604819  0.10294485  0.97380852     0.27200
C101        C  0.98630364  0.92445930  0.97033989     0.35800
C102        C  0.98959470  0.97471701  0.91878288     0.35800
C103        C  0.98407426  0.05334592  0.10697717     0.35800
C104        C  0.98671394  0.10370295  0.05528566     0.35800
C105        C  0.01333582  0.90272426  0.08957052    -0.21700
C106        C  0.01184436  0.93358400  0.12297769    -0.21700
C107        C  0.02417427  0.09205324  0.90252665    -0.21700
C108        C  0.02381329  0.12295655  0.93589140    -0.21700
C109        C  0.97153266  0.90542990  0.93213234    -0.22700
C110        C  0.97357766  0.93724979  0.89953656    -0.22700
C111        C  0.97020980  0.09241206  0.12677390    -0.22700
C112        C  0.97181247  0.12428376  0.09405805    -0.22700
C113        C  0.99149176  0.90198994  0.01115531    -0.18100
C114        C  0.98823471  0.01209417  0.12897696    -0.18100
C115        C  0.99489933  0.12528976  0.01396268    -0.18100
C116        C  0.99737471  0.01537629  0.89664422    -0.18100
H117        H  0.02310253  0.86850316  0.09298537     0.14800
H118        H  0.02049812  0.92779796  0.15693599     0.14800
H119        H  0.03525636  0.09730800  0.86844524     0.14800
H120        H  0.03438892  0.15675843  0.93235351     0.14800
H121        H  0.96014048  0.87211817  0.92816047     0.13100
H122        H  0.96384345  0.93328740  0.86576531     0.13100
H123        H  0.95976924  0.09741725  0.16106253     0.13100
H124        H  0.96302589  0.15871241  0.09839611     0.13100
H125        H  0.97341754  0.98793817  0.04037402     0.26400
H126        H  0.97750419  0.04030921  0.98513532     0.26400
N127        N  0.99842524  0.95795520  0.55990585    -0.36400
N128        N  0.99561714  0.96186849  0.46146251    -0.56900
N129        N  0.99581656  0.05618575  0.46559883    -0.36400
N130        N  0.99246956  0.05249866  0.56407385    -0.56900
C131        C  0.98690858  0.91629679  0.54985167     0.27200
C132        C  0.98878369  0.96414675  0.60380672     0.27200
C133        C  0.98847499  0.05043268  0.42193422     0.27200
C134        C  0.98416811  0.09815871  0.47601145     0.27200
C135        C  0.00382285  0.91845206  0.46802604     0.35800
C136        C  0.00471896  0.97033723  0.41787168     0.35800
C137        C  0.00175507  0.04439535  0.60693586     0.35800
C138        C  0.99817806  0.09621247  0.55715787     0.35800
C139        C  0.96939864  0.89604009  0.58776233    -0.21700
C140        C  0.97092060  0.92606269  0.62177214    -0.21700
C141        C  0.97206497  0.08925016  0.40450987    -0.21700
C142        C  0.96931913  0.11931764  0.43856448    -0.21700
C143        C  0.01839863  0.89930362  0.42836480    -0.22700
C144        C  0.01891320  0.93213464  0.39665411    -0.22700
C145        C  0.01353793  0.08317719  0.62714759    -0.22700
C146        C  0.01078517  0.11603158  0.59579360    -0.22700
C147        C  0.99441819  0.89513918  0.50820501    -0.18100
C148        C  0.99718973  0.00280258  0.62833725    -0.18100
C149        C  0.98982564  0.11903787  0.51729559    -0.18100
C150        C  0.99826187  0.01178329  0.39691247    -0.18100
H151        H  0.95699790  0.86288620  0.59081871     0.14800
H152        H  0.95980624  0.92059180  0.65580663     0.14800
H153        H  0.96318212  0.09538539  0.37068337     0.14800
H154        H  0.95821616  0.15319020  0.43584897     0.14800
H155        H  0.02733097  0.86508999  0.42271634     0.13100
H156        H  0.02836582  0.92822071  0.36195721     0.13100
H157        H  0.02295484  0.08760281  0.66095450     0.13100
H158        H  0.01746175  0.15059313  0.60082444     0.13100
H159        H  0.01616652  0.97908522  0.53911135     0.26400
H160        H  0.01248146  0.03467347  0.48588051     0.26400
N161        N  0.50548818  0.93965614  0.94234495    -0.36400
N162        N  0.50587341  0.93910096  0.04078631    -0.56900
N163        N  0.49900203  0.03378974  0.04028266    -0.36400
N164        N  0.50523428  0.03461043  0.94100569    -0.56900
C165        C  0.51205088  0.89621561  0.95058567     0.27200
C166        C  0.51299222  0.94654169  0.89812313     0.27200
C167        C  0.50895120  0.02669774  0.08324758     0.27200
C168        C  0.50613861  0.07686094  0.03105874     0.27200
C169        C  0.49936779  0.89573863  0.03363058     0.35800
C170        C  0.49954975  0.94559958  0.08502040     0.35800
C171        C  0.49972661  0.02770872  0.89713456     0.35800
C172        C  0.49443545  0.07730626  0.94914537     0.35800
C173        C  0.52404411  0.87520710  0.91106889    -0.21700
C174        C  0.52448229  0.90683643  0.87808853    -0.21700
C175        C  0.52223437  0.06584474  0.10154091    -0.21700
C176        C  0.52047729  0.09745733  0.06868681    -0.21700
C177        C  0.48905186  0.87472251  0.07367674    -0.22700
C178        C  0.48967289  0.90619293  0.10618273    -0.22700
C179        C  0.48639289  0.06647659  0.87716757    -0.22700
C180        C  0.48267111  0.09771628  0.91005934    -0.22700
C181        C  0.50444501  0.87423158  0.99196325    -0.18100
C182        C  0.50646678  0.98686026  0.87482874    -0.18100
C183        C  0.49731642  0.09889563  0.99067737    -0.18100
C184        C  0.50478763  0.98624671  0.10682754    -0.18100
H185        H  0.53106549  0.84043950  0.90628379     0.14800
H186        H  0.53173703  0.90107646  0.84318460     0.14800
H187        H  0.53205801  0.07113427  0.13510832     0.14800
H188        H  0.52874858  0.13183824  0.07216427     0.14800
H189        H  0.48195318  0.84021209  0.07918129     0.13100
H190        H  0.48333274  0.90073833  0.14132437     0.13100
H191        H  0.47942140  0.07158629  0.84264038     0.13100
H192        H  0.47241580  0.13164422  0.90555984     0.13100
H193        H  0.49150890  0.96184709  0.96490906     0.26400
H194        H  0.48355224  0.01208115  0.01973360     0.26400
N195        N  0.50269503  0.03641798  0.44004337    -0.36400
N196        N  0.50888637  0.03643766  0.53880747    -0.56900
N197        N  0.50161352  0.94196586  0.53955293    -0.36400
N198        N  0.49082632  0.94254399  0.44142239    -0.56900
C199        C  0.49917514  0.08008119  0.44881543     0.27200
C200        C  0.49124332  0.03037299  0.39748260     0.27200
C201        C  0.50177956  0.94894582  0.58411614     0.27200
C202        C  0.49073784  0.89943634  0.53297206     0.27200
C203        C  0.51705480  0.07937745  0.52966976     0.35800
C204        C  0.51805897  0.02953098  0.58197894     0.35800
C205        C  0.49270037  0.94822287  0.39672471     0.35800
C206        C  0.49088872  0.89853038  0.44902280     0.35800
C207        C  0.48577867  0.10211024  0.41120944    -0.21700
C208        C  0.48119173  0.07093377  0.37884944    -0.21700
C209        C  0.49163969  0.90982081  0.60596587    -0.21700
C210        C  0.48438795  0.87887582  0.57391799    -0.21700
C211        C  0.53105609  0.09995448  0.56737449    -0.22700
C212        C  0.53129230  0.06867591  0.60042322    -0.22700
C213        C  0.49320238  0.90761217  0.37586671    -0.22700
C214        C  0.49222120  0.87622865  0.40884142    -0.22700
C215        C  0.51002688  0.10127490  0.48874104    -0.18100
C216        C  0.49103983  0.98952281  0.37449308    -0.18100
C217        C  0.48844722  0.87765205  0.49136283    -0.13700
C218        C  0.51281217  0.98895072  0.60556486    -0.18100
H219        H  0.48023004  0.13721455  0.40722032     0.14800
H220        H  0.47158020  0.07767322  0.34539936     0.14800
H221        H  0.49002900  0.90372234  0.64133423     0.14800
H222        H  0.47597107  0.84478653  0.58021282     0.14800
H223        H  0.53986875  0.13416531  0.57096922     0.13100
H224        H  0.53995996  0.07451730  0.63423357     0.13100
H225        H  0.49374250  0.90114495  0.34059843     0.13100
H226        H  0.49231610  0.84090494  0.40366647     0.13100
H227        H  0.51669074  0.01314258  0.46047215     0.26400
H228        H  0.51229563  0.96336771  0.51474874     0.26400
C229        C  0.50197027  0.98530886  0.82523174    -0.05000
C230        C  0.46145586  0.97636449  0.80839811    -0.05000
C231        C  0.45557431  0.97522385  0.76255257    -0.23100
C232        C  0.49023533  0.98263677  0.73213472     0.19100
C233        C  0.53149045  0.99102340  0.74837839     0.16300
C234        C  0.53710819  0.99262512  0.79486303    -0.18100
C235        C  0.56623356  0.99756125  0.71771396    -0.20000
C236        C  0.56017638  0.99592538  0.67178060    -0.12500
C237        C  0.51913121  0.98854860  0.65510893     0.04100
C238        C  0.48423783  0.98190582  0.68582834    -0.24700
H239        H  0.43409382  0.97051315  0.83101588     0.09200
H240        H  0.42375799  0.96850133  0.75086864     0.12800
H241        H  0.56859928  0.99937200  0.80740178     0.12700
H242        H  0.59819365  0.00389715  0.72923899     0.12500
H243        H  0.58758540  0.00104283  0.64901868     0.13100
H244        H  0.45240716  0.97624120  0.67359332     0.15000
C245        C  0.50896618  0.98570189  0.15622898    -0.05000
C246        C  0.54842492  0.97342909  0.17424220    -0.05000
C247        C  0.55280798  0.97159162  0.22030961    -0.23100
C248        C  0.51763444  0.98163486  0.24946071     0.19100
C249        C  0.47750397  0.99337680  0.23175966     0.16300
C250        C  0.47347923  0.99559750  0.18525983    -0.18100
C251        C  0.44211841  0.00253353  0.26094965    -0.20000
C252        C  0.44650651  0.00063296  0.30703214    -0.12500
C253        C  0.48644233  0.99008410  0.32505129     0.04100
C254        C  0.52189066  0.98023594  0.29592713    -0.24700
H255        H  0.57594056  0.96524622  0.15245535     0.09200
H256        H  0.58374012  0.96220972  0.23314179     0.12800
H257        H  0.44278247  0.00455273  0.17159678     0.12700
H258        H  0.41100734  0.01125386  0.24813750     0.12500
H259        H  0.41875393  0.00792210  0.32882257     0.13100
H260        H  0.55271784  0.97166556  0.30953058     0.15000
C261        C  0.99342132  0.01854389  0.84698425    -0.05000
C262        C  0.96450871  0.04935544  0.82912065    -0.05000
C263        C  0.95894507  0.05202645  0.78327669    -0.23100
C264        C  0.98226118  0.02397718  0.75391340     0.19100
C265        C  0.01183095  0.99311676  0.77114757     0.16300
C266        C  0.01724362  0.99056087  0.81747701    -0.18100
C267        C  0.03544794  0.96539630  0.74166000    -0.20000
C268        C  0.03027007  0.96855433  0.69574179    -0.12500
C269        C  0.00110332  0.99919902  0.67798816     0.04100
C270        C  0.97667146  0.02644264  0.70766323    -0.24700
H271        H  0.94568575  0.07114352  0.85092045     0.09200
H272        H  0.93624294  0.07604266  0.77079229     0.12800
H273        H  0.03984942  0.96681434  0.83063929     0.12700
H274        H  0.05826886  0.94146629  0.75407694     0.12500
H275        H  0.04949551  0.94722172  0.67383307     0.13100
H276        H  0.95363379  0.04983852  0.69466431     0.15000
C277        C  0.00187005  0.01566339  0.34703361    -0.05000
C278        C  0.03261900  0.04398440  0.32698525    -0.05000
C279        C  0.03550467  0.04978686  0.28079486    -0.23100
C280        C  0.00769412  0.02734155  0.25329401     0.19100
C281        C  0.97652911  0.99876300  0.27288156     0.16300
C282        C  0.97379912  0.99306936  0.31955169    -0.18100
C283        C  0.94873783  0.97632748  0.24534427    -0.20000
C284        C  0.95221193  0.98150182  0.19906533    -0.12500
C285        C  0.98340566  0.00934770  0.17896070     0.04100
C286        C  0.01083846  0.03259464  0.20659392    -0.24700
H287        H  0.05441953  0.06187508  0.34733138     0.09200
H288        H  0.05959161  0.07187955  0.26656738     0.12800
H289        H  0.94966423  0.97147687  0.33456185     0.12700
H290        H  0.92451441  0.95438376  0.25957407     0.12500
H291        H  0.93066617  0.96331317  0.17869590     0.13100
H292        H  0.03516167  0.05400507  0.19164922     0.15000
C293        C  0.51382983  0.15016086  0.48752999    -0.05000
C294        C  0.54703329  0.16993679  0.46175247    -0.05000
C295        C  0.55057873  0.21584578  0.46002172    -0.23100
C296        C  0.52109253  0.24266667  0.48431746     0.19100
C297        C  0.48770233  0.22294157  0.51056953     0.16300
C298        C  0.48409605  0.17681540  0.51175671    -0.18100
C299        C  0.45854983  0.24969656  0.53523511    -0.20000
C300        C  0.46231203  0.29559383  0.53387439    -0.12500
C301        C  0.49503559  0.31568707  0.50747792     0.04100
C302        C  0.52441688  0.28884339  0.48277740    -0.24700
H303        H  0.57012703  0.14968715  0.44288620     0.09200
H304        H  0.57639704  0.23035576  0.43977264     0.12800
H305        H  0.45835871  0.16150931  0.53153370     0.12700
H306        H  0.43281884  0.23513849  0.55557788     0.12500
H307        H  0.43917111  0.31541598  0.55313086     0.13100
H308        H  0.54996157  0.30381797  0.46247970     0.15000
C309        C  0.50831724  0.66325184  0.50136225    -0.05000
C310        C  0.54704908  0.68320005  0.51268372    -0.05000
C311        C  0.55068500  0.72905924  0.51300548    -0.23100
C312        C  0.51551809  0.75594681  0.50244517     0.19100
C313        C  0.47613953  0.73643181  0.49152474     0.16300
C314        C  0.47284426  0.69020088  0.49085039    -0.18100
C315        C  0.44086284  0.76355403  0.48130838    -0.20000
C316        C  0.44471045  0.80950403  0.48166733    -0.12500
C317        C  0.48384976  0.82891338  0.49214913     0.04100
C318        C  0.51914406  0.80202981  0.50253281    -0.24700
H319        H  0.57490342  0.66328013  0.52072708     0.09200
H320        H  0.58106377  0.74349244  0.52144436     0.12800
H321        H  0.44271135  0.67526828  0.48231674     0.12700
H322        H  0.41040947  0.74925339  0.47293609     0.12500
H323        H  0.41729396  0.83002844  0.47351966     0.13100
H324        H  0.54937933  0.81714339  0.51047138     0.15000
C325        C  0.50711992  0.31410520  0.97748655    -0.05000
C326        C  0.53946061  0.29477947  0.94957787    -0.05000
C327        C  0.54358411  0.24896324  0.94618992    -0.23100
C328        C  0.51532914  0.22142498  0.97046325     0.19100
C329        C  0.48205302  0.24028717  0.99794591     0.16300
C330        C  0.47818724  0.28646031  0.00134527    -0.18100
C331        C  0.45359555  0.21258847  0.02197091    -0.20000
C332        C  0.45833444  0.16672394  0.01906666    -0.12500
C333        C  0.49165163  0.14777533  0.99225923     0.04100
C334        C  0.52008485  0.17535390  0.96801779    -0.24700
H335        H  0.56225989  0.31510237  0.93086987     0.09200
H336        H  0.56917191  0.23506816  0.92486998     0.12800
H337        H  0.45301293  0.30077166  0.02292588     0.12700
H338        H  0.42784918  0.22637141  0.04315944     0.12500
H339        H  0.43616705  0.14585865  0.03799496     0.13100
H340        H  0.54601732  0.16082500  0.94755923     0.15000
C341        C  0.51500405  0.65963105  0.01281787    -0.05000
C342        C  0.54819638  0.67887400  0.03631952    -0.05000
C343        C  0.55292567  0.72472260  0.03698368    -0.23100
C344        C  0.52451817  0.75216663  0.01420264     0.19100
C345        C  0.49045135  0.73322775  0.99133947     0.16300
C346        C  0.48594155  0.68725518  0.99079703    -0.18100
C347        C  0.46158389  0.76055099  0.96904952    -0.20000
C348        C  0.46645410  0.80626007  0.96927125    -0.12500
C349        C  0.50045721  0.82537943  0.99137789     0.04100
C350        C  0.52958102  0.79816288  0.01372012    -0.24700
H351        H  0.57090800  0.65845795  0.05377146     0.09200
H352        H  0.57900400  0.73867453  0.05499767     0.12800
H353        H  0.45999653  0.67303249  0.97276597     0.12700
H354        H  0.43520248  0.74658086  0.95151571     0.12500
H355        H  0.44360562  0.82690116  0.95222926     0.13100
H356        H  0.55578761  0.81293227  0.03093845     0.15000
C357        C  0.49048970  0.50597554  0.83182308    -0.05000
C358        C  0.45008079  0.51558176  0.81449507    -0.05000
C359        C  0.44527671  0.51598756  0.76873101    -0.23100
C360        C  0.48099490  0.50736520  0.74003895     0.19100
C361        C  0.52205649  0.49950111  0.75754174     0.16300
C362        C  0.52641973  0.49862872  0.80323517    -0.18100
C363        C  0.55810120  0.49195825  0.72913037    -0.20000
C364        C  0.55347255  0.49158903  0.68356195    -0.12500
C365        C  0.51270569  0.49791652  0.66615009     0.04100
C366        C  0.47646893  0.50594516  0.69421575    -0.24700
H367        H  0.42202770  0.52137709  0.83634043     0.09200
H368        H  0.41369257  0.52243740  0.75585124     0.12800
H369        H  0.55778141  0.49189891  0.81660578     0.12700
H370        H  0.58971971  0.48605538  0.74214002     0.12500
H371        H  0.58153305  0.48525672  0.66186065     0.13100
H372        H  0.44508976  0.51128877  0.68035184     0.15000
C373        C  0.50775623  0.49686393  0.33063987    -0.05000
C374        C  0.50996299  0.53841960  0.31009904    -0.05000
C375        C  0.51455386  0.54161320  0.26412629    -0.23100
C376        C  0.51573998  0.50325967  0.23839120     0.19100
C377        C  0.51298050  0.46129791  0.25906884     0.16300
C378        C  0.50987141  0.45838893  0.30517956    -0.18100
C379        C  0.51225393  0.42304527  0.23327884    -0.20000
C380        C  0.51302754  0.42644267  0.18724062    -0.12500
C381        C  0.51586398  0.46798387  0.16672529     0.04100
C382        C  0.51819838  0.50621439  0.19228235    -0.24700
H383        H  0.50882940  0.56831356  0.32969787     0.09200
H384        H  0.51647300  0.57395309  0.24871034     0.12800
H385        H  0.50789086  0.42632964  0.32126348     0.12700
H386        H  0.50998141  0.39072327  0.24868112     0.12500
H387        H  0.51126846  0.39671097  0.16761677     0.13100
H388        H  0.51978390  0.53833818  0.17628491     0.15000
C389        C  0.98672378  0.16794006  0.51857826    -0.05000
C390        C  0.94935332  0.18879960  0.53636275    -0.05000
C391        C  0.94547639  0.23483356  0.53566302    -0.23100
C392        C  0.97903174  0.26061222  0.51722203     0.19100
C393        C  0.01694251  0.23970066  0.49964344     0.16300
C394        C  0.02052834  0.19347987  0.50041531    -0.18100
C395        C  0.05049071  0.26535082  0.48128736    -0.20000
C396        C  0.04654628  0.31130833  0.48009409    -0.12500
C397        C  0.00901600  0.33262150  0.49733335     0.04100
C398        C  0.97531705  0.30687655  0.51597567    -0.24700
H399        H  0.92300014  0.16931924  0.55023842     0.09200
H400        H  0.91618179  0.25024137  0.54928043     0.12800
H401        H  0.04933873  0.17722698  0.48661499     0.12700
H402        H  0.07980884  0.24986965  0.46780962     0.12500
H403        H  0.07315144  0.33020245  0.46589067     0.13100
H404        H  0.94621449  0.32275002  0.52953026     0.15000
C405        C  0.00309417  0.67938280  0.52277582    -0.05000
C406        C  0.02998307  0.69786286  0.55412991    -0.05000
C407        C  0.03343976  0.74368874  0.55802409    -0.23100
C408        C  0.00988003  0.77194561  0.53082125     0.19100
C409        C  0.98170443  0.75372457  0.50027939     0.16300
C410        C  0.97861335  0.70773500  0.49635829    -0.18100
C411        C  0.95733816  0.78179714  0.47374761    -0.20000
C412        C  0.96121564  0.82750629  0.47693206    -0.12500
C413        C  0.99007974  0.84611321  0.50609749     0.04100
C414        C  0.01423670  0.81802878  0.53324195    -0.24700
H415        H  0.04907751  0.67688752  0.57511605     0.09200
H416        H  0.05488548  0.75699544  0.58195871     0.12800
H417        H  0.95743308  0.69407271  0.47235694     0.12700
H418        H  0.93531209  0.76840024  0.45044376     0.12500
H419        H  0.94183576  0.84854449  0.45628219     0.13100
H420        H  0.03642424  0.83211849  0.55601084     0.15000
C421        C  0.83321186  0.51281275  0.48579763    -0.05000
C422        C  0.81147252  0.55372934  0.48713051    -0.05000
C423        C  0.76638328  0.55580421  0.48776093    -0.23100
C424        C  0.74227157  0.51700065  0.48613112     0.19100
C425        C  0.76388655  0.47572329  0.48289838     0.16300
C426        C  0.80918461  0.47384854  0.48341386    -0.18100
C427        C  0.73976050  0.43705955  0.47965442    -0.20000
C428        C  0.69463719  0.43919558  0.48046666    -0.12500
C429        C  0.67282120  0.47990036  0.48546528     0.04100
C430        C  0.69693940  0.51876162  0.48802753    -0.24700
H431        H  0.82936037  0.58409092  0.48917485     0.09200
H432        H  0.75036237  0.58774314  0.48989703     0.12800
H433        H  0.82577016  0.44214899  0.48195437     0.12700
H434        H  0.75576745  0.40515992  0.47673539     0.12500
H435        H  0.67672568  0.40885790  0.47832906     0.13100
H436        H  0.68040486  0.55038722  0.49121946     0.15000
C437        C  0.17055259  0.51434177  0.51365953    -0.05000
C438        C  0.18960916  0.55614573  0.51388152    -0.05000
C439        C  0.23456830  0.56014804  0.51112092    -0.23100
C440        C  0.26115675  0.52232618  0.50936253     0.19100
C441        C  0.24209216  0.48011350  0.51126654     0.16300
C442        C  0.19698592  0.47641655  0.51251319    -0.18100
C443        C  0.26845832  0.44227062  0.51182635    -0.20000
C444        C  0.31329720  0.44610982  0.51013787    -0.12500
C445        C  0.33264107  0.48772691  0.50651475     0.04100
C446        C  0.30639357  0.52585739  0.50599670    -0.24700
H447        H  0.16965253  0.58573854  0.51461406     0.09200
H448        H  0.24851644  0.59277384  0.51021306     0.12800
H449        H  0.18236830  0.44406941  0.51280606     0.12700
H450        H  0.25441153  0.40970738  0.51381606     0.12500
H451        H  0.33301594  0.41638164  0.51092764     0.13100
H452        H  0.32116942  0.55809865  0.50410076     0.15000
C453        C  0.99046853  0.17415035  0.01171301    -0.05000
C454        C  0.95795851  0.19335335  0.98661972    -0.05000
C455        C  0.95456290  0.23919740  0.98230031    -0.23100
C456        C  0.98383420  0.26661043  0.00285423     0.19100
C457        C  0.01644577  0.24746384  0.02850091     0.16300
C458        C  0.01951431  0.20135469  0.03285129    -0.18100
C459        C  0.04576525  0.27474598  0.04893598    -0.20000
C460        C  0.04310167  0.32051568  0.04383909    -0.12500
C461        C  0.01105160  0.34011762  0.01819149     0.04100
C462        C  0.98131986  0.31275918  0.99787061    -0.24700
H463        H  0.93541211  0.17266104  0.97005230     0.09200
H464        H  0.92933205  0.25316929  0.96255455     0.12800
H465        H  0.04478951  0.18651612  0.05198803     0.12700
H466        H  0.07094550  0.26068436  0.06869837     0.12500
H467        H  0.06646805  0.34059636  0.05991619     0.13100
H468        H  0.95634878  0.32726990  0.97811791     0.15000
C469        C  0.98811383  0.85298987  0.01165982    -0.05000
C470        C  0.95605142  0.83245145  0.03839487    -0.05000
C471        C  0.95215209  0.78653232  0.03854414    -0.23100
C472        C  0.98018304  0.76037172  0.01177388     0.19100
C473        C  0.01241177  0.78081249  0.98458456     0.16300
C474        C  0.01632287  0.82694461  0.98487099    -0.18100
C475        C  0.04027680  0.75473686  0.95768511    -0.20000
C476        C  0.03678152  0.70877301  0.95819140    -0.12500
C477        C  0.00535956  0.68785180  0.98563207     0.04100
C478        C  0.97681112  0.71412923  0.01206976    -0.24700
H479        H  0.93390883  0.85211834  0.05903167     0.09200
H480        H  0.92720948  0.77149654  0.05955821     0.12800
H481        H  0.04114601  0.84272603  0.96424015     0.12700
H482        H  0.06506067  0.76986274  0.93652527     0.12500
H483        H  0.05922687  0.68955122  0.93749544     0.13100
H484        H  0.95237715  0.69864869  0.03340946     0.15000
C485        C  0.67549710  0.48081681  0.98849661    -0.05000
C486        C  0.69821178  0.45288402  0.95835047    -0.05000
C487        C  0.74337488  0.45228379  0.95574643    -0.23100
C488        C  0.76673246  0.47983745  0.98302354     0.19100
C489        C  0.74419396  0.50764046  0.01374992     0.16300
C490        C  0.69892687  0.50769370  0.01654605    -0.18100
C491        C  0.76725104  0.53551327  0.04080066    -0.20000
C492        C  0.81220708  0.53633560  0.03715844    -0.12500
C493        C  0.83523762  0.50901444  0.00667350     0.04100
C494        C  0.81213868  0.48047409  0.97983090    -0.24700
H495        H  0.68106251  0.43158938  0.93653900     0.09200
H496        H  0.76000259  0.43063013  0.93205039     0.12800
H497        H  0.68198562  0.52934555  0.04005204     0.12700
H498        H  0.75049760  0.55699543  0.06457877     0.12500
H499        H  0.82897958  0.55842395  0.05850288     0.13100
H500        H  0.82935762  0.45920745  0.95617780     0.15000
C501        C  0.17643952  0.51748837  0.99861057    -0.05000
C502        C  0.19905132  0.54443279  0.96772608    -0.05000
C503        C  0.24406503  0.54584294  0.96661613    -0.23100
C504        C  0.26750035  0.52013408  0.99618411     0.19100
C505        C  0.24536390  0.49302333  0.02755416     0.16300
C506        C  0.20000093  0.49201552  0.02872804    -0.18100
C507        C  0.26905561  0.46690629  0.05671084    -0.20000
C508        C  0.31422916  0.46682053  0.05402226    -0.12500
C509        C  0.33652234  0.49325713  0.02249591     0.04100
C510        C  0.31274447  0.52045827  0.99420285    -0.24700
H511        H  0.18194082  0.56443415  0.94417060     0.09200
H512        H  0.26057251  0.56674548  0.94229015     0.12800
H513        H  0.18315042  0.47106480  0.05276630     0.12700
H514        H  0.25266576  0.44598782  0.08109151     0.12500
H515        H  0.33171354  0.44575960  0.07636732     0.13100
H516        H  0.32940133  0.54096165  0.96960716     0.15000
C517        C  0.98360451  0.48648426  0.66974625    -0.05000
C518        C  0.94608815  0.47065030  0.69178278    -0.05000
C519        C  0.94387810  0.46750875  0.73804536    -0.23100
C520        C  0.97926389  0.47994963  0.76246866     0.19100
C521        C  0.01749517  0.49430146  0.73995936     0.16300
C522        C  0.01937074  0.49737817  0.69402226    -0.18100
C523        C  0.05312916  0.50655371  0.76364748    -0.20000
C524        C  0.05038418  0.50668969  0.80956308    -0.12500
C525        C  0.01208004  0.49433221  0.83241532     0.04100
C526        C  0.97689333  0.47966223  0.80889168    -0.24700
H527        H  0.91824864  0.46172505  0.67337374     0.09200
H528        H  0.91440232  0.45617820  0.75467423     0.12800
H529        H  0.04873907  0.50883250  0.67717279     0.12700
H530        H  0.08273350  0.51711567  0.74668703     0.12500
H531        H  0.07811169  0.51728812  0.82727313     0.13100
H532        H  0.94731430  0.46998296  0.82651767     0.15000
C533        C  0.02478341  0.51636595  0.33311393    -0.05000
C534        C  0.05808534  0.49184039  0.31146729    -0.05000
C535        C  0.06118093  0.49009050  0.26534200    -0.23100
C536        C  0.03078376  0.51250501  0.24032141     0.19100
C537        C  0.99794176  0.53823442  0.26179764     0.16300
C538        C  0.99546190  0.54040059  0.30800400    -0.18100
C539        C  0.96733843  0.56037578  0.23679619    -0.20000
C540        C  0.96876092  0.55639514  0.19082585    -0.12500
C541        C  0.00093852  0.53038070  0.16929918     0.04100
C542        C  0.03215314  0.50886064  0.19423690    -0.24700
H543        H  0.08134544  0.47336548  0.33018198     0.09200
H544        H  0.08669717  0.47045076  0.24931584     0.12800
H545        H  0.96971130  0.55948794  0.32435221     0.12700
H546        H  0.94197532  0.58020882  0.25281173     0.12500
H547        H  0.94438352  0.57332773  0.17220366     0.13100
H548        H  0.05729337  0.48891505  0.17791981     0.15000
loop_ 
_geom_bond_atom_site_label_1 
_geom_bond_atom_site_label_2 
_geom_bond_distance 
_geom_bond_site_symmetry_2 
_ccdc_geom_bond_type 
O1           C17   1.275   1_655  A
O1           Zn7   2.006       .  S
C2           O18   1.277   1_454  A
C2           O15   1.273       .  A
C2          C461   1.486       .  S
O3           C16   1.274       .  A
O3          Cd10   2.061       .  S
O4           C22   1.273       .  A
O4          Cd13   2.038       .  S
O5           C19   1.274       .  A
O5           Cd9   2.075       .  S
O6           C17   1.273       .  A
O6           Cd9   2.026       .  S
Zn7          O18   2.043       .  S
Zn7          O20   2.042       .  S
Zn7          O12   1.961   1_655  S
O8           C19   1.274   1_554  A
O8          Cd13   2.075       .  S
Cd9          O11   2.078       .  S
Cd9          O12   1.987       .  S
Cd10         O14   2.077       .  S
Cd10         O23   2.040       .  S
Cd10         O12   1.992   1_654  S
O11          C21   1.275       .  A
O12         Cd13   1.992   1_556  S
Cd13         O15   2.060       .  S
O14          C21   1.275   1_654  A
C16          O20   1.276   1_554  A
C16         C493   1.486       .  S
C17         C525   1.460       .  S
C19         C501   1.487       .  S
C21         C477   1.488       .  S
C22          O23   1.272   1_455  A
C22         C541   1.465       .  S
O24          C40   1.273       .  A
O24         Zn30   2.013       .  S
C25          O41   1.275   1_655  A
C25          O38   1.272       .  A
C25         C517   1.462       .  S
O26          C39   1.272       .  A
O26         Cd33   2.064       .  S
O27          C45   1.274   1_655  A
O27         Cd36   2.069       .  S
O28          C42   1.277       .  A
O28         Cd32   2.089       .  S
O29          C40   1.276   1_655  A
O29         Cd32   2.079       .  S
Zn30         O41   1.982       .  S
Zn30         O43   2.031       .  S
Zn30         O35   1.933       .  S
O31          C42   1.274       .  A
O31         Cd36   2.067       .  S
Cd32         O34   2.060       .  S
Cd32         O35   1.993   1_655  S
Cd33         O37   2.042       .  S
Cd33         O46   2.071       .  S
Cd33         O35   1.992       .  S
O34          C44   1.277   1_655  A
O35         Cd36   2.002   1_455  S
Cd36         O38   2.044       .  S
O37          C44   1.274       .  A
C39          O43   1.273       .  A
C39         C437   1.475       .  S
C40         C405   1.485       .  S
C42         C421   1.479       .  S
C44         C533   1.468       .  S
C45          O46   1.275       .  A
C45         C397   1.484       .  S
O47          C63   1.274       .  A
O47         Zn53   2.026       .  S
C48          O64   1.273       .  A
C48          O61   1.272       .  A
C48         C381   1.454       .  S
O49          C62   1.274       .  A
O49         Cd56   2.070       .  S
O50          C68   1.275   1_554  A
O50         Cd59   2.076       .  S
O51          C65   1.273   1_556  A
O51         Cd55   2.056       .  S
O52          C63   1.273   1_556  A
O52         Cd55   2.062       .  S
Zn53         O64   1.984       .  S
Zn53         O66   2.021       .  S
Zn53         O58   1.937       .  S
O54          C65   1.276       .  A
O54         Cd59   2.084       .  S
Cd55         O57   2.041       .  S
Cd55         O58   1.989   1_556  S
Cd56         O60   2.047       .  S
Cd56         O69   2.071       .  S
Cd56         O58   1.987   1_556  S
O57          C67   1.271       .  A
O58         Cd59   1.997       .  S
Cd59         O61   2.038       .  S
O60          C67   1.275       .  A
C62          O66   1.274   1_556  A
C62         C485   1.485       .  S
C63         C341   1.483       .  S
C65         C509   1.483       .  S
C67         C357   1.460       .  S
C68          O69   1.275       .  A
C68         C325   1.485       .  S
O70          C86   1.273       .  A
O70         Zn76   2.014       .  S
C71          O87   1.272       .  A
C71          O84   1.273       .  A
C71         C365   1.449       .  S
O72          C85   1.274       .  A
O72         Cd79   2.078       .  S
O73          C91   1.274       .  A
O73         Cd82   2.069       .  S
O74          C88   1.276       .  A
O74         Cd78   2.091       .  S
O75          C86   1.274       .  A
O75         Cd78   2.074       .  S
Zn76         O87   1.980       .  S
Zn76         O89   2.023       .  S
Zn76         O81   1.932       .  S
O77          C88   1.272       .  A
O77         Cd82   2.058       .  S
Cd78         O80   2.049       .  S
Cd78         O81   2.001       .  S
Cd79         O83   2.040       .  S
Cd79         O92   2.073       .  S
Cd79         O81   1.994       .  S
O80          C90   1.275       .  A
O81         Cd82   1.986       .  S
Cd82         O84   2.040       .  S
O83          C90   1.274       .  A
C85          O89   1.273       .  A
C85         C429   1.481       .  S
C86         C309   1.482       .  S
C88         C445   1.477       .  S
C90         C373   1.454       .  S
C91          O92   1.275       .  A
C91         C301   1.483       .  S
N93          C98   1.359       .  A
N93          C97   1.353       .  A
N93         H125   1.040       .  S
N94         C101   1.351       .  A
N94         C102   1.357       .  A
N95         C100   1.351   1_655  A
N95          C99   1.359   1_655  A
N95         H126   1.040       .  S
N96         C103   1.358       .  A
N96         C104   1.352       .  A
C97         C105   1.388   1_655  A
C97         C113   1.420       .  A
C98         C114   1.421   1_565  A
C98         C106   1.386   1_655  A
C99         C107   1.385       .  A
C99         C116   1.420   1_455  A
C100        C115   1.419   1_456  A
C100        C108   1.389       .  A
C101        C113   1.418   1_556  A
C101        C109   1.388       .  A
C102        C116   1.417   1_565  A
C102        C110   1.384       .  A
C103        C111   1.384       .  A
C103        C114   1.419       .  A
C104        C112   1.388       .  A
C104        C115   1.420       .  A
C105        C106   1.377       .  A
C105        H117   1.082       .  S
C106        H118   1.082       .  S
C107        C108   1.378       .  A
C107        H119   1.082       .  S
C108        H120   1.083       .  S
C109        C110   1.374       .  A
C109        H121   1.082       .  S
C110        H122   1.082       .  S
C111        C112   1.377       .  A
C111        H123   1.082       .  S
C112        H124   1.082       .  S
C113        C469   1.489       .  S
C114        C285   1.511       .  S
C115        C453   1.487       .  S
C116        C261   1.510       .  S
N127        C132   1.359       .  A
N127        C131   1.355       .  A
N127        H159   1.041   1_655  S
N128        C135   1.352   1_655  A
N128        C136   1.358   1_655  A
N129        C134   1.353       .  A
N129        C133   1.358       .  A
N129        H160   1.039   1_655  S
N130        C137   1.357   1_655  A
N130        C138   1.352       .  A
C131        C139   1.389       .  A
C131        C147   1.423       .  A
C132        C148   1.421   1_565  A
C132        C140   1.385       .  A
C133        C141   1.386       .  A
C133        C150   1.419       .  A
C134        C149   1.418       .  A
C134        C142   1.388       .  A
C135        C147   1.422   1_455  A
C135        C143   1.389       .  A
C136        C150   1.419   1_465  A
C136        C144   1.384       .  A
C137        C145   1.386       .  A
C137        C148   1.419   1_455  A
C138        C146   1.386   1_655  A
C138        C149   1.416       .  A
C139        C140   1.377       .  A
C139        H151   1.082       .  S
C140        H152   1.082       .  S
C141        C142   1.376       .  A
C141        H153   1.082       .  S
C142        H154   1.082       .  S
C143        C144   1.376       .  A
C143        H155   1.082       .  S
C144        H156   1.082       .  S
C145        C146   1.374       .  A
C145        H157   1.081       .  S
C146        H158   1.082       .  S
C147        C413   1.495       .  S
C148        C269   1.511   1_645  S
C149        C389   1.484       .  S
C150        C277   1.508   1_655  S
N161        C166   1.360       .  A
N161        C165   1.353       .  A
N161        H193   1.038       .  S
N162        C169   1.351       .  A
N162        C170   1.356       .  A
N163        C168   1.352       .  A
N163        C167   1.360       .  A
N163        H194   1.040       .  S
N164        C171   1.359       .  A
N164        C172   1.353       .  A
C165        C173   1.389       .  A
C165        C181   1.424       .  A
C166        C182   1.423       .  A
C166        C174   1.385       .  A
C167        C175   1.385       .  A
C167        C184   1.419   1_545  A
C168        C183   1.421   1_554  A
C168        C176   1.389       .  A
C169        C181   1.421   1_554  A
C169        C177   1.390       .  A
C170        C184   1.413       .  A
C170        C178   1.383       .  A
C171        C179   1.384       .  A
C171        C182   1.421   1_545  A
C172        C180   1.389       .  A
C172        C183   1.423       .  A
C173        C174   1.378       .  A
C173        H185   1.082       .  S
C174        H186   1.082       .  S
C175        C176   1.377       .  A
C175        H187   1.082       .  S
C176        H188   1.082       .  S
C177        C178   1.372       .  A
C177        H189   1.082       .  S
C178        H190   1.083       .  S
C179        C180   1.375       .  A
C179        H191   1.082       .  S
C180        H192   1.082       .  S
C181        C349   1.487       .  S
C182        C229   1.509       .  S
C183        C333   1.490       .  S
C184        C245   1.501       .  S
N195        C200   1.360       .  A
N195        C199   1.353       .  A
N195        H227   1.037       .  S
N196        C203   1.353       .  A
N196        C204   1.359       .  A
N197        C202   1.353       .  A
N197        C201   1.362       .  A
N197        H228   1.035       .  S
N198        C205   1.357       .  A
N198        C206   1.352       .  A
C199        C207   1.389       .  A
C199        C215   1.422       .  A
C200        C216   1.422   1_545  A
C200        C208   1.386       .  A
C201        C209   1.387       .  A
C201        C218   1.428       .  A
C202        C217   1.426       .  A
C202        C210   1.389       .  A
C203        C215   1.422       .  A
C203        C211   1.387       .  A
C204        C218   1.425   1_545  A
C204        C212   1.386       .  A
C205        C213   1.384       .  A
C205        C216   1.418       .  A
C206        C214   1.389       .  A
C206        C217   1.422       .  A
C207        C208   1.374       .  A
C207        H219   1.082       .  S
C208        H220   1.081       .  S
C209        C210   1.377       .  A
C209        H221   1.081       .  S
C210        H222   1.082       .  S
C211        C212   1.372       .  A
C211        H223   1.082       .  S
C212        H224   1.081       .  S
C213        C214   1.372       .  A
C213        H225   1.082       .  S
C214        H226   1.082       .  S
C215        C293   1.487       .  S
C216        C253   1.504       .  S
C217        C317   1.485       .  S
C218        C237   1.515       .  S
C229        C230   1.404       .  A
C229        C234   1.414       .  A
C230        C231   1.403       .  A
C230        H239   1.083       .  S
C231        C232   1.404       .  A
C231        H240   1.083       .  S
C232        C238   1.417       .  A
C232        C233   1.415       .  A
C233        C235   1.407       .  A
C233        C234   1.421       .  A
C234        H241   1.084       .  S
C235        C236   1.407       .  A
C235        H242   1.083   1_565  S
C236        C237   1.408       .  A
C236        H243   1.083   1_565  S
C237        C238   1.412       .  A
C238        H244   1.084       .  S
C245        C246   1.405       .  A
C245        C250   1.409       .  A
C246        C247   1.402       .  A
C246        H255   1.083       .  S
C247        C248   1.405       .  A
C247        H256   1.083       .  S
C248        C254   1.414       .  A
C248        C249   1.415       .  A
C249        C251   1.405   1_565  A
C249        C250   1.414       .  A
C250        H257   1.084   1_565  S
C251        C252   1.403       .  A
C251        H258   1.083       .  S
C252        C253   1.406   1_545  A
C252        H259   1.083       .  S
C253        C254   1.409       .  A
C254        H260   1.084       .  S
C261        C262   1.407       .  A
C261        C266   1.413   1_645  A
C262        C263   1.402       .  A
C262        H271   1.083       .  S
C263        C264   1.404       .  A
C263        H272   1.083       .  S
C264        C270   1.414       .  A
C264        C265   1.414   1_645  A
C265        C267   1.405       .  A
C265        C266   1.416       .  A
C266        H273   1.084       .  S
C267        C268   1.404       .  A
C267        H274   1.083       .  S
C268        C269   1.408       .  A
C268        H275   1.083       .  S
C269        C270   1.412   1_465  A
C270        H276   1.084       .  S
C277        C278   1.407       .  A
C277        C282   1.411   1_445  A
C278        C279   1.403       .  A
C278        H287   1.083       .  S
C279        C280   1.404       .  A
C279        H288   1.083       .  S
C280        C286   1.416       .  A
C280        C281   1.415   1_445  A
C281        C283   1.404       .  A
C281        C282   1.417       .  A
C282        H289   1.084       .  S
C283        C284   1.404       .  A
C283        H290   1.083       .  S
C284        C285   1.408   1_565  A
C284        H291   1.083       .  S
C285        C286   1.411   1_655  A
C286        H292   1.084       .  S
C293        C294   1.403       .  A
C293        C298   1.404       .  A
C294        C295   1.397       .  A
C294        H303   1.083       .  S
C295        C296   1.403       .  A
C295        H304   1.083       .  S
C296        C302   1.404       .  A
C296        C297   1.414       .  A
C297        C299   1.401       .  A
C297        C298   1.403       .  A
C298        H305   1.084       .  S
C299        C300   1.397       .  A
C299        H306   1.084       .  S
C300        C301   1.407       .  A
C300        H307   1.083       .  S
C301        C302   1.407       .  A
C302        H308   1.084       .  S
C309        C310   1.406       .  A
C309        C314   1.408       .  A
C310        C311   1.395       .  A
C310        H319   1.083       .  S
C311        C312   1.400       .  A
C311        H320   1.084       .  S
C312        C318   1.402       .  A
C312        C313   1.415       .  A
C313        C315   1.404       .  A
C313        C314   1.406       .  A
C314        H321   1.084       .  S
C315        C316   1.399       .  A
C315        H322   1.083       .  S
C316        C317   1.403       .  A
C316        H323   1.083       .  S
C317        C318   1.402       .  A
C318        H324   1.084       .  S
C325        C326   1.407       .  A
C325        C330   1.409   1_556  A
C326        C327   1.396       .  A
C326        H335   1.083       .  S
C327        C328   1.400       .  A
C327        H336   1.084       .  S
C328        C334   1.404       .  A
C328        C329   1.414       .  A
C329        C331   1.403   1_556  A
C329        C330   1.406   1_556  A
C330        H337   1.084       .  S
C331        C332   1.398       .  A
C331        H338   1.084       .  S
C332        C333   1.405   1_554  A
C332        H339   1.083       .  S
C333        C334   1.404       .  A
C334        H340   1.084       .  S
C341        C342   1.407       .  A
C341        C346   1.407   1_554  A
C342        C343   1.399       .  A
C342        H351   1.083       .  S
C343        C344   1.402       .  A
C343        H352   1.084       .  S
C344        C350   1.404       .  A
C344        C345   1.414   1_554  A
C345        C347   1.402       .  A
C345        C346   1.402       .  A
C346        H353   1.084       .  S
C347        C348   1.395       .  A
C347        H354   1.083       .  S
C348        C349   1.403       .  A
C348        H355   1.083       .  S
C349        C350   1.406   1_556  A
C350        H356   1.084       .  S
C357        C358   1.404       .  A
C357        C362   1.398       .  A
C358        C359   1.394       .  A
C358        H367   1.083       .  S
C359        C360   1.401       .  A
C359        H368   1.084       .  S
C360        C366   1.396       .  A
C360        C361   1.416       .  A
C361        C363   1.398       .  A
C361        C362   1.391       .  A
C362        H369   1.085       .  S
C363        C364   1.388       .  A
C363        H370   1.084       .  S
C364        C365   1.400       .  A
C364        H371   1.084       .  S
C365        C366   1.399       .  A
C366        H372   1.085       .  S
C373        C374   1.402       .  A
C373        C378   1.398       .  A
C374        C375   1.391       .  A
C374        H383   1.083       .  S
C375        C376   1.400       .  A
C375        H384   1.084       .  S
C376        C382   1.392       .  A
C376        C377   1.415       .  A
C377        C379   1.400       .  A
C377        C378   1.393       .  A
C378        H385   1.085       .  S
C379        C380   1.391       .  A
C379        H386   1.084       .  S
C380        C381   1.402       .  A
C380        H387   1.083       .  S
C381        C382   1.399       .  A
C382        H388   1.085       .  S
C389        C390   1.402       .  A
C389        C394   1.403   1_655  A
C390        C391   1.399       .  A
C390        H399   1.083       .  S
C391        C392   1.404       .  A
C391        H400   1.083       .  S
C392        C398   1.405       .  A
C392        C393   1.414   1_655  A
C393        C395   1.401       .  A
C393        C394   1.404       .  A
C394        H401   1.084       .  S
C395        C396   1.397       .  A
C395        H402   1.084       .  S
C396        C397   1.407       .  A
C396        H403   1.083       .  S
C397        C398   1.409   1_455  A
C398        H404   1.084       .  S
C405        C406   1.408       .  A
C405        C410   1.406   1_455  A
C406        C407   1.400       .  A
C406        H415   1.083       .  S
C407        C408   1.403       .  A
C407        H416   1.084       .  S
C408        C414   1.407       .  A
C408        C409   1.414   1_455  A
C409        C411   1.401       .  A
C409        C410   1.404       .  A
C410        H417   1.084       .  S
C411        C412   1.396       .  A
C411        H418   1.083       .  S
C412        C413   1.405       .  A
C412        H419   1.083       .  S
C413        C414   1.408   1_655  A
C414        H420   1.084       .  S
C421        C422   1.404       .  A
C421        C426   1.407       .  A
C422        C423   1.399       .  A
C422        H431   1.083       .  S
C423        C424   1.403       .  A
C423        H432   1.084       .  S
C424        C430   1.405       .  A
C424        C425   1.414       .  A
C425        C427   1.403       .  A
C425        C426   1.406       .  A
C426        H433   1.084       .  S
C427        C428   1.400       .  A
C427        H434   1.084       .  S
C428        C429   1.405       .  A
C428        H435   1.083       .  S
C429        C430   1.407       .  A
C430        H436   1.084       .  S
C437        C438   1.404       .  A
C437        C442   1.403       .  A
C438        C439   1.400       .  A
C438        H447   1.083       .  S
C439        C440   1.404       .  A
C439        H448   1.083       .  S
C440        C446   1.408       .  A
C440        C441   1.415       .  A
C441        C443   1.401       .  A
C441        C442   1.404       .  A
C442        H449   1.085       .  S
C443        C444   1.396       .  A
C443        H450   1.084       .  S
C444        C445   1.405       .  A
C444        H451   1.083       .  S
C445        C446   1.406       .  A
C446        H452   1.084       .  S
C453        C454   1.404   1_554  A
C453        C458   1.402   1_655  A
C454        C455   1.398       .  A
C454        H463   1.083       .  S
C455        C456   1.403   1_556  A
C455        H464   1.083       .  S
C456        C462   1.407   1_554  A
C456        C457   1.415   1_655  A
C457        C459   1.399       .  A
C457        C458   1.405       .  A
C458        H465   1.084       .  S
C459        C460   1.396       .  A
C459        H466   1.084       .  S
C460        C461   1.408       .  A
C460        H467   1.083       .  S
C461        C462   1.408   1_454  A
C462        H468   1.084       .  S
C469        C470   1.404       .  A
C469        C474   1.405   1_654  A
C470        C471   1.398       .  A
C470        H479   1.083       .  S
C471        C472   1.403       .  A
C471        H480   1.083       .  S
C472        C478   1.406       .  A
C472        C473   1.414   1_654  A
C473        C475   1.401       .  A
C473        C474   1.404       .  A
C474        H481   1.084       .  S
C475        C476   1.398       .  A
C475        H482   1.084       .  S
C476        C477   1.408       .  A
C476        H483   1.083       .  S
C477        C478   1.409   1_456  A
C478        H484   1.084       .  S
C485        C486   1.407       .  A
C485        C490   1.406   1_556  A
C486        C487   1.400       .  A
C486        H495   1.083       .  S
C487        C488   1.403       .  A
C487        H496   1.084       .  S
C488        C494   1.408       .  A
C488        C489   1.414   1_556  A
C489        C491   1.400       .  A
C489        C490   1.403       .  A
C490        H497   1.084       .  S
C491        C492   1.395       .  A
C491        H498   1.084       .  S
C492        C493   1.408       .  A
C492        H499   1.083       .  S
C493        C494   1.409   1_554  A
C494        H500   1.084       .  S
C501        C502   1.407       .  A
C501        C506   1.410   1_556  A
C502        C503   1.397       .  A
C502        H511   1.083       .  S
C503        C504   1.401       .  A
C503        H512   1.084       .  S
C504        C510   1.402       .  A
C504        C505   1.412   1_556  A
C505        C507   1.404       .  A
C505        C506   1.407       .  A
C506        H513   1.084       .  S
C507        C508   1.400       .  A
C507        H514   1.083       .  S
C508        C509   1.406       .  A
C508        H515   1.083       .  S
C509        C510   1.408   1_554  A
C510        H516   1.084       .  S
C517        C518   1.405       .  A
C517        C522   1.397   1_655  A
C518        C519   1.397       .  A
C518        H527   1.083       .  S
C519        C520   1.403       .  A
C519        H528   1.084       .  S
C520        C526   1.399       .  A
C520        C521   1.414   1_655  A
C521        C523   1.395       .  A
C521        C522   1.387       .  A
C522        H529   1.085       .  S
C523        C524   1.384       .  A
C523        H530   1.084       .  S
C524        C525   1.403       .  A
C524        H531   1.083       .  S
C525        C526   1.403   1_455  A
C526        H532   1.084       .  S
C533        C534   1.406       .  A
C533        C538   1.402   1_455  A
C534        C535   1.392       .  A
C534        H543   1.083       .  S
C535        C536   1.399       .  A
C535        H544   1.084       .  S
C536        C542   1.394       .  A
C536        C537   1.413   1_455  A
C537        C539   1.399       .  A
C537        C538   1.395       .  A
C538        H545   1.084       .  S
C539        C540   1.391       .  A
C539        H546   1.084       .  S
C540        C541   1.405   1_655  A
C540        H547   1.083       .  S
C541        C542   1.403       .  A
C542        H548   1.085       .  S
