geometry optimzed in LAMMPS
_audit_creation_date              2020-11-30 
_audit_creation_method            'lammps2cif' 
_symmetry_space_group_name_H-M    'P1' 
_symmetry_Int_Tables_number       1 
_symmetry_cell_setting            triclinic 
loop_ 
_symmetry_equiv_pos_as_xyz 
  x,y,z 
_cell_length_a                    28.65709772 
_cell_length_b                    28.955300466797 
_cell_length_c                    41.26542372902673 
_cell_angle_alpha                 90.11799946362198 
_cell_angle_beta                  90.1231225801302 
_cell_angle_gamma                 79.30509761131049 
loop_ 
_atom_site_label 
_atom_site_type_symbol 
_atom_site_fract_x 
_atom_site_fract_y 
_atom_site_fract_z 
_atom_site_charge 
O1          O  0.17956095  0.35784912  0.60950963    -0.74800
C2          C  0.33167482  0.34159600  0.62311571     0.86200
O3          O  0.25578096  0.21866889  0.54775419    -0.76000
O4          O  0.35182477  0.19027427  0.64681862    -0.77400
O5          O  0.20995330  0.25538051  0.70220705    -0.77200
O6          O  0.14429220  0.32119552  0.64723535    -0.75900
Zn7        Zn  0.24044930  0.31325831  0.59808801     1.55700
O8          O  0.28739856  0.25771324  0.70204847    -0.77300
Cd9        Cd  0.19143680  0.25862017  0.65353061     1.59700
Cd10       Cd  0.25606976  0.20009776  0.59649233     1.59600
O11         O  0.15661437  0.20381335  0.64264576    -0.77200
O12         O  0.24827778  0.25705968  0.62503181    -1.87800
Cd13       Cd  0.30562532  0.25349785  0.65345305     1.59900
O14         O  0.20061203  0.16442444  0.60329114    -0.77200
O15         O  0.34128762  0.30754023  0.64295500    -0.75900
C16         C  0.24728358  0.25870916  0.53388113     0.86700
C17         C  0.14557049  0.35642915  0.62910399     0.86300
O18         O  0.29491281  0.34765772  0.60512327    -0.74800
C19         C  0.24873590  0.25682162  0.71695375     0.87100
O20         O  0.23960884  0.29689681  0.55013403    -0.74900
C21         C  0.16493827  0.17030220  0.62218996     0.87300
C22         C  0.35150719  0.15536864  0.62806372     0.87600
O23         O  0.31844836  0.15397425  0.60759206    -0.77300
C24         C  0.03518559  0.46927720  0.63286759     0.33700
C25         C  0.46190154  0.04265871  0.63259703     0.33700
C26         C  0.48999090  0.45983630  0.61621117    -0.02500
C27         C  0.01761641  0.48751853  0.66635610    -0.03300
C28         C  0.04515723  0.01343229  0.61579954    -0.03200
C29         C  0.45178202  0.49809854  0.61605765    -0.02500
C30         C  0.47985606  0.02535291  0.66621466    -0.03300
C31         C  0.00687306  0.05166175  0.61562569    -0.03200
C32         C  0.41078870  0.47943148  0.61586033    -0.28600
N33         N  0.42269398  0.43209840  0.61489983     0.17900
C34         C  0.47045906  0.41966963  0.61611517    -0.28600
H35         H  0.48943828  0.38424396  0.62043064     0.19900
C36         C  0.46918936  0.03735401  0.69798926    -0.27600
N37         N  0.99958904  0.00772162  0.71710815     0.16600
C38         C  0.02933542  0.47711182  0.69821528    -0.27600
C39         C  0.02625873  0.09189409  0.61524109    -0.27900
N40         N  0.07401447  0.07959746  0.61430410     0.17100
H41         H  0.00716944  0.12735751  0.61930215     0.19800
C42         C  0.08605840  0.03229282  0.61563929    -0.27900
H43         H  0.12171741  0.01320831  0.62005789     0.19800
H44         H  0.05738331  0.44968454  0.70701542     0.19800
H45         H  0.37513751  0.49873211  0.61994121     0.19800
H46         H  0.44171328  0.06549710  0.70658304     0.19800
O47         O  0.04876622  0.10319636  0.92697750    -0.74800
C48         C  0.39918402  0.11210249  0.90313037     0.86200
O49         O  0.00996801  0.47437799  0.98419325    -0.76000
O50         O  0.40982398  0.45966245  0.88986010    -0.77400
O51         O  0.04021399  0.01201649  0.82972165    -0.77200
O52         O  0.09445287  0.06349315  0.88864074    -0.75900
Zn53       Zn  0.99429468  0.06891006  0.93402453     1.55700
O54         O  0.46275671  0.00973242  0.83012322    -0.77300
Cd55       Cd  0.05897886  0.00906961  0.87834743     1.59700
Cd56       Cd  0.01000947  0.45573977  0.93543796     1.59600
O57         O  0.10544655  0.44601273  0.88510403    -0.77200
O58         O  0.00196824  0.01267152  0.90699669    -1.87800
Cd59       Cd  0.44474543  0.01416731  0.87876532     1.59900
O60         O  0.07227698  0.40966511  0.92420583    -0.77200
O61         O  0.39779916  0.07685855  0.88493422    -0.75900
C62         C  0.00143167  0.01442948  0.99813383     0.86700
C63         C  0.08517042  0.09736262  0.90873920     0.86300
O64         O  0.43330350  0.11353936  0.92272092    -0.74800
C65         C  0.00133564  0.01058199  0.81509676     0.87100
O66         O  0.99367698  0.05260142  0.98195017    -0.74900
C67         C  0.10522304  0.41108689  0.90375999     0.87300
C68         C  0.41855027  0.42595695  0.91005709     0.87600
O69         O  0.45461881  0.41988119  0.92869008    -0.77300
C70         C  0.28855071  0.22470741  0.89934188     0.33700
C71         C  0.21530297  0.29811828  0.89926238     0.33700
C72         C  0.29868048  0.26919824  0.91598938    -0.02500
C73         C  0.27059302  0.24218776  0.86577398    -0.03300
C74         C  0.24351116  0.21560871  0.91624733    -0.03200
C75         C  0.26045382  0.30741415  0.91597815    -0.02500
C76         C  0.23283894  0.28003178  0.86572383    -0.03300
C77         C  0.20528970  0.25392392  0.91621882    -0.03200
C78         C  0.27983347  0.34764354  0.91634950    -0.28600
N79         N  0.32759084  0.33531143  0.91748336     0.17900
C80         C  0.33961506  0.28798577  0.91625265    -0.28600
H81         H  0.37529266  0.26881328  0.91207844     0.19900
C82         C  0.22093389  0.29042590  0.83388917    -0.27600
N83         N  0.25057269  0.25980150  0.81493088     0.16600
C84         C  0.28106859  0.23016249  0.83398165    -0.27600
C85         C  0.16429080  0.23524782  0.91634088    -0.27900
N86         N  0.17615590  0.18792866  0.91741201     0.17100
H87         H  0.12867064  0.25450596  0.91203218     0.19800
C88         C  0.22391466  0.17547347  0.91637086    -0.27900
H89         H  0.24286115  0.14001479  0.91208758     0.19800
H90         H  0.30842249  0.20194808  0.82533187     0.19800
H91         H  0.26075781  0.38309295  0.91225664     0.19800
H92         H  0.19279543  0.31781155  0.82515064     0.19800
O93         O  0.06819066  0.41761636  0.10944919    -0.74800
C94         C  0.41609509  0.43381981  0.12277089     0.86200
O95         O  0.49197309  0.05672417  0.04784454    -0.76000
O96         O  0.39593680  0.08521443  0.14674711    -0.77400
O97         O  0.03787097  0.02006018  0.20232032    -0.77200
O98         O  0.10352139  0.45435198  0.14730710    -0.75900
Zn99       Zn  0.50726957  0.46216528  0.09798896     1.55700
O100        O  0.46042271  0.01773491  0.20194120    -0.77300
Cd101      Cd  0.05633918  0.01689719  0.15367371     1.59700
Cd102      Cd  0.49162044  0.07532938  0.09662067     1.59600
O103        O  0.09111992  0.07173559  0.14300345    -0.77200
O104        O  0.49946766  0.01839527  0.12504179    -1.88200
Cd105      Cd  0.44214212  0.02199118  0.15332114     1.59900
O106        O  0.04703768  0.11103662  0.10363572    -0.77200
O107        O  0.40649445  0.46793674  0.14263004    -0.75900
C108        C  0.50048004  0.01667490  0.03389735     0.86700
C109        C  0.10222119  0.41908613  0.12910570     0.86300
O110        O  0.45283001  0.42772250  0.10484027    -0.74800
C111        C  0.49909931  0.01858799  0.21695515     0.87100
O112        O  0.50810899  0.47849821  0.05007642    -0.74900
C113        C  0.08274476  0.10520728  0.12258949     0.87300
C114        C  0.39621638  0.12008756  0.12805772     0.87600
O115        O  0.42923333  0.12144514  0.10764965    -0.77300
C116        C  0.21261093  0.30624398  0.13287582     0.33700
C117        C  0.28587137  0.23283899  0.13261417     0.33700
C118        C  0.25772272  0.31556435  0.11620868    -0.02500
C119        C  0.23034157  0.28816535  0.16636694    -0.03300
C120        C  0.20251717  0.26200363  0.11583231    -0.03200
C121        C  0.29590563  0.27729358  0.11605799    -0.02500
C122        C  0.26810270  0.25032576  0.16623108    -0.03300
C123        C  0.24079519  0.22375293  0.11566208    -0.03200
C124        C  0.33691532  0.29592381  0.11573869    -0.28600
N125        N  0.32502619  0.34325250  0.11470068     0.17900
C126        C  0.27727056  0.35571847  0.11599453    -0.28600
H127        H  0.25834297  0.39118816  0.12026214     0.19900
C128        C  0.27874055  0.23829982  0.19800251    -0.27600
N129        N  0.24833893  0.26793193  0.21711562     0.16600
C130        C  0.21859376  0.29855004  0.19821986    -0.27600
C131        C  0.22138347  0.18353167  0.11540418    -0.27900
N132        N  0.17362495  0.19583470  0.11454670     0.17100
H133        H  0.24049356  0.14810057  0.11951898     0.19800
C134        C  0.16160880  0.24314924  0.11579531    -0.27900
H135        H  0.12599500  0.26227876  0.12026039     0.19800
H136        H  0.19047552  0.32590960  0.20701156     0.19800
H137        H  0.37259637  0.27663456  0.11977126     0.19800
H138        H  0.30612684  0.21007186  0.20659503     0.19800
C139        C  0.45924928  0.05051920  0.39930515     0.33700
C140        C  0.03252611  0.47713391  0.39923918     0.33700
C141        C  0.44923755  0.00611590  0.41597243    -0.02500
C142        C  0.47704088  0.03286814  0.36574051    -0.03300
C143        C  0.00437610  0.05973944  0.41619602    -0.03200
C144        C  0.48747061  0.46791978  0.41596369    -0.02500
C145        C  0.01480595  0.99503448  0.36569707    -0.03300
C146        C  0.04261934  0.02143004  0.41617251    -0.03200
C147        C  0.46811638  0.42768045  0.41645429    -0.28600
N148        N  0.42036361  0.44000884  0.41765757     0.17900
C149        C  0.40831382  0.48732537  0.41634369    -0.28600
H150        H  0.37259245  0.00645718  0.41221893     0.19900
C151        C  0.02675702  0.48467116  0.33387000    -0.27600
N152        N  0.49710404  0.01528380  0.31490890     0.16600
C153        C  0.46658869  0.04490738  0.33395145    -0.27600
C154        C  0.08360217  0.04013858  0.41617245    -0.27900
N155        N  0.07172485  0.08746304  0.41716180     0.17100
H156        H  0.11918937  0.02086363  0.41181828     0.19800
C157        C  0.02395868  0.09988551  0.41619947    -0.27900
H158        H  0.00496201  0.13530015  0.41186772     0.19800
H159        H  0.43930572  0.07318770  0.32530166     0.19800
H160        H  0.48717317  0.39219864  0.41241766     0.19800
H161        H  0.05498100  0.45736757  0.32514235     0.19800
O162        O  0.19909721  0.17215570  0.42665086    -0.74800
C163        C  0.34863044  0.16313875  0.40309996     0.86200
O164        O  0.23789069  0.30098001  0.48424999    -0.76000
O165        O  0.33802574  0.31554544  0.39015802    -0.77400
O166        O  0.20755226  0.26328469  0.32959639    -0.77200
O167        O  0.15336596  0.21177139  0.38827967    -0.75900
Zn168      Zn  0.25358652  0.20641053  0.43389338     1.55700
O169        O  0.28500835  0.26556711  0.33021461    -0.77300
Cd170      Cd  0.18884698  0.26618647  0.37819378     1.59700
Cd171      Cd  0.23790708  0.31958462  0.43553256     1.59600
O172        O  0.14237638  0.32923701  0.38501582    -0.77200
O173        O  0.24588392  0.26262073  0.40697970    -1.87800
Cd174      Cd  0.30307049  0.26106590  0.37887736     1.59900
O175        O  0.17564490  0.36566571  0.42423107    -0.77200
O176        O  0.34998919  0.19835235  0.38497509    -0.75900
C177        C  0.24640255  0.26093568  0.49811767     0.86700
C178        C  0.16266454  0.17795573  0.40835112     0.86300
O179        O  0.31455357  0.16174827  0.42263007    -0.74800
C180        C  0.24641708  0.26475085  0.31508125     0.87100
O181        O  0.25419250  0.22275316  0.48186029    -0.74900
C182        C  0.14264780  0.36420140  0.40372952     0.87300
C183        C  0.32936200  0.34929031  0.41039695     0.87600
O184        O  0.29333838  0.35541049  0.42898610    -0.77300
C185        C  0.10352386  0.11849322  0.41360262    -0.09600
C186        C  0.13066097  0.14544912  0.41078600    -0.11200
C187        C  0.10436012  0.40370679  0.40145427    -0.09600
C188        C  0.07221568  0.43697941  0.39981943    -0.11200
C189        C  0.38692758  0.12355347  0.40133052    -0.09600
C190        C  0.41937839  0.09052738  0.39991356    -0.11200
C191        C  0.36156958  0.38163969  0.41251725    -0.09600
C192        C  0.38865437  0.40874763  0.41480118    -0.11200
C193        C  0.24743320  0.26671305  0.25107380    -0.09600
C194        C  0.24677914  0.26568592  0.28029205    -0.11200
C195        C  0.49892789  0.01764291  0.25174315    -0.09600
C196        C  0.49821945  0.01655578  0.28095773    -0.11200
C197        C  0.11498872  0.13750829  0.12054769    -0.09600
C198        C  0.14201009  0.16460215  0.11793278    -0.11200
C199        C  0.14048099  0.37947199  0.13096424    -0.09600
C200        C  0.17281030  0.34632941  0.13239581    -0.11200
C201        C  0.35787632  0.15956519  0.13023999    -0.09600
C202        C  0.32561999  0.19273704  0.13188622    -0.11200
C203        C  0.38414057  0.40125483  0.12027930    -0.09600
C204        C  0.35693181  0.37429429  0.11777150    -0.11200
C205        C  0.14430628  0.15688713  0.91398783    -0.09600
C206        C  0.11714602  0.12991381  0.91123745    -0.11200
C207        C  0.36086936  0.15167161  0.90137096    -0.09600
C208        C  0.32841188  0.18469113  0.89995610    -0.11200
C209        C  0.14349962  0.37157270  0.90147830    -0.09600
C210        C  0.17562787  0.33828602  0.89983846    -0.11200
C211        C  0.35927923  0.36653698  0.91448361    -0.09600
C212        C  0.38634343  0.39362718  0.91212222    -0.11200
C213        C  0.00037421  0.00882108  0.75107644    -0.09600
C214        C  0.00095597  0.00974226  0.78030239    -0.11200
C215        C  0.24892652  0.25766450  0.75174610    -0.09600
C216        C  0.24957171  0.25864360  0.78096866    -0.11200
C217        C  0.42213555  0.08274498  0.63187191    -0.09600
C218        C  0.38986060  0.11590135  0.63023727    -0.11200
C219        C  0.10732735  0.39605897  0.63096628    -0.09600
C220        C  0.07500043  0.42920453  0.63239405    -0.11200
C221        C  0.36365741  0.37411372  0.62068096    -0.09600
C222        C  0.39084009  0.40106170  0.61810493    -0.11200
C223        C  0.10565293  0.11086936  0.61754250    -0.09600
C224        C  0.13269512  0.13798316  0.62008164    -0.11200
O225        O  0.17956390  0.85784970  0.60950591    -0.74800
C226        C  0.33167612  0.84159736  0.62311462     0.86200
O227        O  0.25577646  0.71866821  0.54775159    -0.76000
O228        O  0.35182426  0.69027303  0.64681332    -0.77400
O229        O  0.20995570  0.75538842  0.70220550    -0.77200
O230        O  0.14429375  0.82119876  0.64723242    -0.75900
Zn231      Zn  0.24045198  0.81325859  0.59808509     1.55700
O232        O  0.28740270  0.75771272  0.70204478    -0.77300
Cd233      Cd  0.19143754  0.75862385  0.65352941     1.59700
Cd234      Cd  0.25606560  0.70009740  0.59649018     1.59600
O235        O  0.15661381  0.70381628  0.64264883    -0.77200
O236        O  0.24827775  0.75706019  0.62502906    -1.87800
Cd237      Cd  0.30562675  0.75349731  0.65344886     1.59900
O238        O  0.20060649  0.66442574  0.60329258    -0.77200
O239        O  0.34128907  0.80754002  0.64295254    -0.75900
C240        C  0.24728327  0.75870853  0.53387837     0.86700
C241        C  0.14557310  0.85643125  0.62910024     0.86300
O242        O  0.29491462  0.84765956  0.60512165    -0.74800
C243        C  0.24873988  0.75682599  0.71695114     0.87100
O244        O  0.23961232  0.79689642  0.55013113    -0.74900
C245        C  0.16493500  0.67030422  0.62219356     0.87300
C246        C  0.35150410  0.65536665  0.62805956     0.87600
O247        O  0.31844376  0.65397241  0.60758904    -0.77300
C248        C  0.03519081  0.96928088  0.63286479     0.33700
C249        C  0.46189550  0.54265429  0.63259661     0.33700
C250        C  0.48999191  0.95983885  0.61621495    -0.02500
C251        C  0.01763040  0.98752702  0.66635405    -0.03300
C252        C  0.04515526  0.51343122  0.61580751    -0.03200
C253        C  0.45178382  0.99810119  0.61606305    -0.02500
C254        C  0.47984171  0.52534417  0.66621511    -0.03300
C255        C  0.00687089  0.55165987  0.61563185    -0.03200
C256        C  0.41079001  0.97943515  0.61586808    -0.28600
N257        N  0.42269459  0.93210193  0.61490731     0.17900
C258        C  0.47045989  0.91967236  0.61612047    -0.28600
H259        H  0.48943928  0.88424644  0.62043369     0.19900
C260        C  0.46916803  0.53734193  0.69798937    -0.27600
N261        N  0.99956403  0.50770762  0.71710953     0.16600
C262        C  0.02935615  0.97712356  0.69821272    -0.27600
C263        C  0.02625553  0.59189291  0.61524956    -0.27900
N264        N  0.07401161  0.57959713  0.61431565     0.17100
H265        H  0.00716477  0.62735631  0.61930848     0.19800
C266        C  0.08605613  0.53229239  0.61565086    -0.27900
H267        H  0.12171516  0.51320805  0.62007012     0.19800
H268        H  0.05740450  0.94969571  0.70701172     0.19800
H269        H  0.37513897  0.99873666  0.61994913     0.19800
H270        H  0.44169116  0.56548496  0.70658203     0.19800
O271        O  0.04876920  0.60319435  0.92697320    -0.74800
C272        C  0.39918325  0.61210394  0.90313235     0.86200
O273        O  0.00996723  0.97437681  0.98419230    -0.76000
O274        O  0.40983236  0.95966175  0.88984938    -0.77400
O275        O  0.04019624  0.51200862  0.82971924    -0.77200
O276        O  0.09444589  0.56349301  0.88863086    -0.75900
Zn277      Zn  0.99429573  0.56891030  0.93402403     1.55700
O278        O  0.46273891  0.50972497  0.83012785    -0.77300
Cd279      Cd  0.05897062  0.50906709  0.87834354     1.59700
Cd280      Cd  0.01000941  0.95573970  0.93543647     1.59600
O281        O  0.10545234  0.94601461  0.88510757    -0.77200
O282        O  0.00196452  0.51267074  0.90699737    -1.87800
Cd283      Cd  0.44473652  0.51416546  0.87877109     1.59900
O284        O  0.07227628  0.90966352  0.92420435    -0.77200
O285        O  0.39779374  0.57685800  0.88493927    -0.75900
C286        C  0.00143247  0.51443081  0.99813444     0.86700
C287        C  0.08516904  0.59736146  0.90873070     0.86300
O288        O  0.43330551  0.61354149  0.92272046    -0.74800
C289        C  0.00131534  0.51057275  0.81509793     0.87100
O290        O  0.99367846  0.55260262  0.98195044    -0.74900
C291        C  0.10522503  0.91108674  0.90376083     0.87300
C292        C  0.41855265  0.92595843  0.91004860     0.87600
O293        O  0.45461656  0.91988415  0.92868584    -0.77300
C294        C  0.28855209  0.72470945  0.89933960     0.33700
C295        C  0.21530416  0.79811897  0.89925991     0.33700
C296        C  0.29868125  0.76919992  0.91598806    -0.02500
C297        C  0.27059600  0.74219057  0.86577149    -0.03300
C298        C  0.24351187  0.71560895  0.91624334    -0.03200
C299        C  0.26045418  0.80741553  0.91597669    -0.02500
C300        C  0.23284153  0.78003425  0.86572125    -0.03300
C301        C  0.20529008  0.75392369  0.91621474    -0.03200
C302        C  0.27983390  0.84764525  0.91634519    -0.28600
N303        N  0.32759139  0.83531400  0.91747753     0.17900
C304        C  0.33961565  0.78798828  0.91624876    -0.28600
H305        H  0.37529295  0.76881581  0.91207344     0.19900
C306        C  0.22093769  0.79042941  0.83388655    -0.27600
N307        N  0.25057764  0.75980596  0.81492831     0.16600
C308        C  0.28107288  0.73016653  0.83397917    -0.27600
C309        C  0.16429135  0.73524674  0.91633295    -0.27900
N310        N  0.17615654  0.68792746  0.91740185     0.17100
H311        H  0.12867140  0.75450505  0.91202353     0.19800
C312        C  0.22391554  0.67547327  0.91636296    -0.27900
H313        H  0.24286302  0.64001513  0.91207888     0.19800
H314        H  0.30842761  0.70195214  0.82532936     0.19800
H315        H  0.26075767  0.88309412  0.91225093     0.19800
H316        H  0.19279922  0.81781495  0.82514799     0.19800
O317        O  0.06819372  0.91761818  0.10944661    -0.74800
C318        C  0.41609665  0.93381557  0.12276472     0.86200
O319        O  0.49196939  0.55672550  0.04784494    -0.76000
O320        O  0.39593872  0.58521562  0.14675241    -0.77400
O321        O  0.03788386  0.52006951  0.20231712    -0.77200
O322        O  0.10351767  0.95434978  0.14731048    -0.75900
Zn323      Zn  0.50727123  0.96216399  0.09798770     1.55700
O324        O  0.46043618  0.51774146  0.20194455    -0.77300
Cd325      Cd  0.05634469  0.51690081  0.15366936     1.59700
Cd326      Cd  0.49161592  0.57533102  0.09662061     1.59600
O327        O  0.09112369  0.57173763  0.14299336    -0.77200
O328        O  0.49946858  0.51839725  0.12504225    -1.88200
Cd329      Cd  0.44214721  0.52199383  0.15332594     1.59900
O330        O  0.04702963  0.61104279  0.10363262    -0.77200
O331        O  0.40649049  0.96793526  0.14262112    -0.75900
C332        C  0.50047930  0.51667623  0.03389800     0.86700
C333        C  0.10222148  0.91908670  0.12910557     0.86300
O334        O  0.45283538  0.92771677  0.10483784    -0.74800
C335        C  0.49911486  0.51859735  0.21695520     0.87100
O336        O  0.50810854  0.97849682  0.05007553    -0.74900
C337        C  0.08274184  0.60521179  0.12258175     0.87300
C338        C  0.39621371  0.62008661  0.12806023     0.87600
O339        O  0.42922754  0.62144357  0.10764971    -0.77300
C340        C  0.21261040  0.80624470  0.13287261     0.33700
C341        C  0.28586843  0.73283741  0.13261242     0.33700
C342        C  0.25772377  0.81556316  0.11620679    -0.02500
C343        C  0.23033817  0.78816489  0.16636398    -0.03300
C344        C  0.20251610  0.76200549  0.11582793    -0.03200
C345        C  0.29590530  0.77729134  0.11605692    -0.02500
C346        C  0.26809802  0.75032426  0.16622881    -0.03300
C347        C  0.24079293  0.72375361  0.11565845    -0.03200
C348        C  0.33691599  0.79591946  0.11573600    -0.28600
N349        N  0.32502846  0.84324816  0.11469611     0.17900
C350        C  0.27727297  0.85571623  0.11599048    -0.28600
H351        H  0.25834679  0.89118670  0.12025665     0.19900
C352        C  0.27873412  0.73829801  0.19800035    -0.27600
N353        N  0.24833258  0.76793096  0.21711290     0.16600
C354        C  0.21858909  0.79854991  0.19821668    -0.27600
C355        C  0.22137983  0.68353338  0.11539794    -0.27900
N356        N  0.17362155  0.69583847  0.11453819     0.17100
H357        H  0.24048802  0.64810198  0.11951272     0.19800
C358        C  0.16160675  0.74315299  0.11578786    -0.27900
H359        H  0.12599302  0.76228336  0.12025174     0.19800
H360        H  0.19047170  0.82591063  0.20700792     0.19800
H361        H  0.37259689  0.77662908  0.11976832     0.19800
H362        H  0.30611961  0.71006960  0.20659337     0.19800
C363        C  0.45925403  0.55052232  0.39930388     0.33700
C364        C  0.03252005  0.97713003  0.39923860     0.33700
C365        C  0.44924044  0.50611662  0.41596685    -0.02500
C366        C  0.47705256  0.53287557  0.36573978    -0.03300
C367        C  0.00437747  0.55974142  0.41620005    -0.03200
C368        C  0.48746742  0.96791826  0.41596834    -0.02500
C369        C  0.01481821  0.49504240  0.36569724    -0.03300
C370        C  0.04262151  0.52143222  0.41617749    -0.03200
C371        C  0.46811200  0.92767960  0.41645975    -0.28600
N372        N  0.42035945  0.94000873  0.41766412     0.17900
C373        C  0.40831056  0.98732521  0.41635062    -0.28600
H374        H  0.37259554  0.50645697  0.41221242     0.19900
C375        C  0.02673944  0.98465984  0.33386943    -0.27600
N376        N  0.49712422  0.51529647  0.31490885     0.16600
C377        C  0.46660527  0.54491772  0.33395059    -0.27600
C378        C  0.08360373  0.54014157  0.41618038    -0.27900
N379        N  0.07172559  0.58746580  0.41717030     0.17100
H380        H  0.11919140  0.52086749  0.41182641     0.19800
C381        C  0.02395956  0.59988774  0.41620593    -0.27900
H382        H  0.00496310  0.63530216  0.41187296     0.19800
H383        H  0.43932238  0.57319733  0.32530021     0.19800
H384        H  0.48716766  0.89219781  0.41242141     0.19800
H385        H  0.05496227  0.95735604  0.32514117     0.19800
O386        O  0.19909992  0.67215627  0.42665043    -0.74800
C387        C  0.34863224  0.66314041  0.40309567     0.86200
O388        O  0.23788695  0.80097927  0.48424712    -0.76000
O389        O  0.33802219  0.81554777  0.39015636    -0.77400
O390        O  0.20754870  0.76328169  0.32959395    -0.77200
O391        O  0.15336511  0.71177044  0.38828023    -0.75900
Zn392      Zn  0.25358917  0.70641075  0.43389069     1.55700
O393        O  0.28500349  0.76557071  0.33021134    -0.77300
Cd394      Cd  0.18884488  0.76618470  0.37819145     1.59700
Cd395      Cd  0.23790322  0.81958412  0.43552971     1.59600
O396        O  0.14237250  0.82923430  0.38501313    -0.77200
O397        O  0.24588253  0.76262060  0.40697665    -1.87800
Cd398      Cd  0.30306814  0.76106757  0.37887391     1.59900
O399        O  0.17564041  0.86566414  0.42422802    -0.77200
O400        O  0.34998884  0.69835400  0.38497024    -0.75900
C401        C  0.24640241  0.76093509  0.49811487     0.86700
C402        C  0.16266546  0.67795598  0.40835244     0.86300
O403        O  0.31455651  0.66174942  0.42262663    -0.74800
C404        C  0.24641244  0.76475125  0.31507842     0.87100
O405        O  0.25419596  0.72275270  0.48185747    -0.74900
C406        C  0.14264319  0.86419890  0.40372675     0.87300
C407        C  0.32935762  0.84929162  0.41039613     0.87600
O408        O  0.29333348  0.85541078  0.42898468    -0.77300
C409        C  0.10352414  0.61849583  0.41360962    -0.09600
C410        C  0.13066153  0.64545068  0.41079057    -0.11200
C411        C  0.10435452  0.90370337  0.40145186    -0.09600
C412        C  0.07220948  0.93697548  0.39981778    -0.11200
C413        C  0.38693069  0.62355589  0.40132645    -0.09600
C414        C  0.41938216  0.59053003  0.39991087    -0.11200
C415        C  0.36156504  0.88164084  0.41251860    -0.09600
C416        C  0.38864973  0.90874845  0.41480511    -0.11200
C417        C  0.24742680  0.76671305  0.25107104    -0.09600
C418        C  0.24677344  0.76568638  0.28028927    -0.11200
C419        C  0.49894872  0.51765500  0.25174319    -0.09600
C420        C  0.49824140  0.51656866  0.28095776    -0.11200
C421        C  0.11498394  0.63751382  0.12053763    -0.09600
C422        C  0.14200536  0.66460730  0.11792280    -0.11200
C423        C  0.14048244  0.87947399  0.13096274    -0.09600
C424        C  0.17281141  0.84633121  0.13239274    -0.11200
C425        C  0.35787207  0.65956258  0.13024170    -0.09600
C426        C  0.32561579  0.69273451  0.13188610    -0.11200
C427        C  0.38414407  0.90124918  0.12027225    -0.09600
C428        C  0.35693528  0.87428877  0.11776520    -0.11200
C429        C  0.14430711  0.65688548  0.91397619    -0.09600
C430        C  0.11714630  0.62991219  0.91122610    -0.11200
C431        C  0.36087057  0.65167442  0.90137184    -0.09600
C432        C  0.32841345  0.68469382  0.89995491    -0.11200
C433        C  0.14350047  0.87157203  0.90147834    -0.09600
C434        C  0.17562871  0.83828584  0.89983685    -0.11200
C435        C  0.35927943  0.86653978  0.91447485    -0.09600
C436        C  0.38634390  0.89362981  0.91211209    -0.11200
C437        C  0.00034682  0.50880754  0.75107779    -0.09600
C438        C  0.00092986  0.50972993  0.78030368    -0.11200
C439        C  0.24893210  0.75766990  0.75174350    -0.09600
C440        C  0.24957739  0.75864877  0.78096604    -0.11200
C441        C  0.42212974  0.58274071  0.63186964    -0.09600
C442        C  0.38985593  0.61589800  0.63023364    -0.11200
C443        C  0.10733092  0.89606168  0.63096180    -0.09600
C444        C  0.07500468  0.92920766  0.63238975    -0.11200
C445        C  0.36365767  0.87411653  0.62068273    -0.09600
C446        C  0.39084027  0.90106522  0.61810987    -0.11200
C447        C  0.10564947  0.61087016  0.61755222    -0.09600
C448        C  0.13269150  0.63798480  0.62008866    -0.11200
O449        O  0.67956099  0.35784912  0.60950963    -0.74800
C450        C  0.83167478  0.34159600  0.62311570     0.86200
O451        O  0.75578100  0.21866889  0.54775419    -0.76000
O452        O  0.85182482  0.19027427  0.64681862    -0.77400
O453        O  0.70995322  0.25538051  0.70220706    -0.77200
O454        O  0.64429224  0.32119551  0.64723535    -0.75900
Zn455      Zn  0.74044934  0.31325831  0.59808801     1.55700
O456        O  0.78739849  0.25771323  0.70204846    -0.77300
Cd457      Cd  0.69143683  0.25862017  0.65353061     1.59700
Cd458      Cd  0.75606979  0.20009776  0.59649233     1.59600
O459        O  0.65661439  0.20381336  0.64264576    -0.77200
O460        O  0.74827783  0.25705967  0.62503182    -1.87800
Cd461      Cd  0.80562533  0.25349784  0.65345306     1.59900
O462        O  0.70061203  0.16442441  0.60329115    -0.77200
O463        O  0.84128748  0.30754026  0.64295503    -0.75900
C464        C  0.74728362  0.25870916  0.53388113     0.86700
C465        C  0.64557053  0.35642915  0.62910399     0.86300
O466        O  0.79491281  0.34765774  0.60512323    -0.74800
C467        C  0.74873583  0.25682162  0.71695375     0.87100
O468        O  0.73960887  0.29689681  0.55013403    -0.74900
C469        C  0.66493826  0.17030221  0.62218996     0.87300
C470        C  0.85150723  0.15536864  0.62806372     0.87600
O471        O  0.81844840  0.15397425  0.60759206    -0.77300
C472        C  0.53518561  0.46927721  0.63286760     0.33700
C473        C  0.96190156  0.04265872  0.63259703     0.33700
C474        C  0.98999088  0.45983630  0.61621116    -0.02500
C475        C  0.51761640  0.48751856  0.66635611    -0.03300
C476        C  0.54515724  0.01343229  0.61579954    -0.03200
C477        C  0.95178201  0.49809854  0.61605765    -0.02500
C478        C  0.97985606  0.02535294  0.66621466    -0.03300
C479        C  0.50687306  0.05166175  0.61562570    -0.03200
C480        C  0.91078870  0.47943150  0.61586033    -0.28600
N481        N  0.92269393  0.43209841  0.61489983     0.17900
C482        C  0.97045902  0.41966963  0.61611517    -0.28600
H483        H  0.98943818  0.38424400  0.62043063     0.19900
C484        C  0.96918934  0.03735398  0.69798924    -0.27600
N485        N  0.49958919  0.00772166  0.71710815     0.16600
C486        C  0.52933542  0.47711190  0.69821530    -0.27600
C487        C  0.52625876  0.09189406  0.61524108    -0.27900
N488        N  0.57401448  0.07959744  0.61430410     0.17100
H489        H  0.50716945  0.12735758  0.61930215     0.19800
C490        C  0.58605842  0.03229280  0.61563929    -0.27900
H491        H  0.62171744  0.01320831  0.62005790     0.19800
H492        H  0.55738323  0.44968467  0.70701545     0.19800
H493        H  0.87513746  0.49873217  0.61994121     0.19800
H494        H  0.94171309  0.06549724  0.70658305     0.19800
O495        O  0.54876625  0.10319635  0.92697749    -0.74800
C496        C  0.89918406  0.11210249  0.90313037     0.86200
O497        O  0.50996806  0.47437799  0.98419325    -0.76000
O498        O  0.90982399  0.45966243  0.88986008    -0.77400
O499        O  0.54021400  0.01201649  0.82972166    -0.77200
O500        O  0.59445292  0.06349314  0.88864074    -0.75900
Zn501      Zn  0.49429466  0.06891006  0.93402452     1.55700
O502        O  0.96275670  0.00973242  0.83012323    -0.77300
Cd503      Cd  0.55897886  0.00906963  0.87834743     1.59700
Cd504      Cd  0.51000953  0.45573978  0.93543796     1.59600
O505        O  0.60544653  0.44601276  0.88510403    -0.77200
O506        O  0.50196824  0.01267153  0.90699668    -1.87800
Cd507      Cd  0.94474546  0.01416731  0.87876532     1.59900
O508        O  0.57227702  0.40966511  0.92420583    -0.77200
O509        O  0.89779919  0.07685855  0.88493422    -0.75900
C510        C  0.50143169  0.01442948  0.99813383     0.86700
C511        C  0.58517045  0.09736261  0.90873920     0.86300
O512        O  0.93330354  0.11353936  0.92272092    -0.74800
C513        C  0.50133566  0.01058199  0.81509676     0.87100
O514        O  0.49367695  0.05260142  0.98195017    -0.74900
C515        C  0.60522307  0.41108690  0.90375999     0.87300
C516        C  0.91855021  0.42595694  0.91005708     0.87600
O517        O  0.95461869  0.41988120  0.92869013    -0.77300
C518        C  0.78855069  0.22470741  0.89934189     0.33700
C519        C  0.71530297  0.29811829  0.89926238     0.33700
C520        C  0.79868048  0.26919822  0.91598938    -0.02500
C521        C  0.77059300  0.24218776  0.86577398    -0.03300
C522        C  0.74351112  0.21560873  0.91624732    -0.03200
C523        C  0.76045382  0.30741413  0.91597815    -0.02500
C524        C  0.73283895  0.28003181  0.86572384    -0.03300
C525        C  0.70528964  0.25392394  0.91621880    -0.03200
C526        C  0.77983346  0.34764353  0.91634951    -0.28600
N527        N  0.82759082  0.33531143  0.91748336     0.17900
C528        C  0.83961507  0.28798577  0.91625265    -0.28600
H529        H  0.87529268  0.26881330  0.91207844     0.19900
C530        C  0.72093388  0.29042595  0.83388918    -0.27600
N531        N  0.75057261  0.25980150  0.81493088     0.16600
C532        C  0.78106844  0.23016247  0.83398165    -0.27600
C533        C  0.66429075  0.23524780  0.91634087    -0.27900
N534        N  0.67615589  0.18792866  0.91741201     0.17100
H535        H  0.62867052  0.25450592  0.91203217     0.19800
C536        C  0.72391464  0.17547348  0.91637086    -0.27900
H537        H  0.74286115  0.14001480  0.91208759     0.19800
H538        H  0.80842242  0.20194782  0.82533181     0.19800
H539        H  0.76075779  0.38309293  0.91225664     0.19800
H540        H  0.69279542  0.31781160  0.82515068     0.19800
O541        O  0.56819070  0.41761637  0.10944919    -0.74800
C542        C  0.91609505  0.43381981  0.12277088     0.86200
O543        O  0.99197312  0.05672417  0.04784454    -0.76000
O544        O  0.89593665  0.08521440  0.14674708    -0.77400
O545        O  0.53787097  0.02006018  0.20232033    -0.77200
O546        O  0.60352143  0.45435198  0.14730710    -0.75900
Zn547      Zn  0.00726956  0.46216527  0.09798896     1.55700
O548        O  0.96042272  0.01773492  0.20194120    -0.77300
Cd549      Cd  0.55633920  0.01689719  0.15367371     1.59700
Cd550      Cd  0.99162046  0.07532937  0.09662067     1.59600
O551        O  0.59111996  0.07173559  0.14300345    -0.77200
O552        O  0.99946767  0.01839528  0.12504178    -1.88200
Cd553      Cd  0.94214213  0.02199119  0.15332113     1.59900
O554        O  0.54703770  0.11103661  0.10363572    -0.77200
O555        O  0.90649447  0.46793674  0.14263004    -0.75900
C556        C  0.00048002  0.01667490  0.03389735     0.86700
C557        C  0.60222123  0.41908613  0.12910570     0.86300
O558        O  0.95282998  0.42772247  0.10484026    -0.74800
C559        C  0.99909933  0.01858799  0.21695515     0.87100
O560        O  0.00810920  0.47849821  0.05007642    -0.74900
C561        C  0.58274480  0.10520728  0.12258949     0.87300
C562        C  0.89621634  0.12008755  0.12805772     0.87600
O563        O  0.92923336  0.12144512  0.10764970    -0.77300
C564        C  0.71261094  0.30624398  0.13287582     0.33700
C565        C  0.78587137  0.23283900  0.13261417     0.33700
C566        C  0.75772269  0.31556435  0.11620868    -0.02500
C567        C  0.73034156  0.28816534  0.16636695    -0.03300
C568        C  0.70251720  0.26200362  0.11583231    -0.03200
C569        C  0.79590560  0.27729357  0.11605798    -0.02500
C570        C  0.76810271  0.25032578  0.16623108    -0.03300
C571        C  0.74079523  0.22375293  0.11566208    -0.03200
C572        C  0.83691521  0.29592384  0.11573868    -0.28600
N573        N  0.82502613  0.34325250  0.11470067     0.17900
C574        C  0.77727049  0.35571847  0.11599453    -0.28600
H575        H  0.75834293  0.39118816  0.12026214     0.19900
C576        C  0.77874055  0.23829986  0.19800251    -0.27600
N577        N  0.74833891  0.26793193  0.21711562     0.16600
C578        C  0.71859363  0.29855001  0.19821987    -0.27600
C579        C  0.72138351  0.18353166  0.11540418    -0.27900
N580        N  0.67362499  0.19583470  0.11454670     0.17100
H581        H  0.74049360  0.14810057  0.11951899     0.19800
C582        C  0.66160884  0.24314924  0.11579531    -0.27900
H583        H  0.62599504  0.26227876  0.12026039     0.19800
H584        H  0.69047551  0.32590935  0.20701151     0.19800
H585        H  0.87259655  0.27663441  0.11977129     0.19800
H586        H  0.80612688  0.21007191  0.20659504     0.19800
C587        C  0.95924923  0.05051920  0.39930515     0.33700
C588        C  0.53252611  0.47713392  0.39923919     0.33700
C589        C  0.94923746  0.00611589  0.41597243    -0.02500
C590        C  0.97704085  0.03286815  0.36574051    -0.03300
C591        C  0.50437615  0.05973944  0.41619602    -0.03200
C592        C  0.98747063  0.46791978  0.41596369    -0.02500
C593        C  0.51480598  0.99503449  0.36569707    -0.03300
C594        C  0.54261940  0.02143005  0.41617251    -0.03200
C595        C  0.96811641  0.42768045  0.41645429    -0.28600
N596        N  0.92036365  0.44000883  0.41765757     0.17900
C597        C  0.90831385  0.48732537  0.41634369    -0.28600
H598        H  0.87259232  0.00645715  0.41221892     0.19900
C599        C  0.52675703  0.48467118  0.33387000    -0.27600
N600        N  0.99710407  0.01528380  0.31490890     0.16600
C601        C  0.96658871  0.04490740  0.33395144    -0.27600
C602        C  0.58360223  0.04013858  0.41617245    -0.27900
N603        N  0.57172490  0.08746304  0.41716180     0.17100
H604        H  0.61918943  0.02086363  0.41181827     0.19800
C605        C  0.52395873  0.09988551  0.41619947    -0.27900
H606        H  0.50496205  0.13530016  0.41186772     0.19800
H607        H  0.93930575  0.07318771  0.32530165     0.19800
H608        H  0.98717321  0.39219864  0.41241766     0.19800
H609        H  0.55498102  0.45736761  0.32514234     0.19800
O610        O  0.69909725  0.17215570  0.42665086    -0.74800
C611        C  0.84863048  0.16313883  0.40309997     0.86200
O612        O  0.73789073  0.30098001  0.48424999    -0.76000
O613        O  0.83802578  0.31554544  0.39015802    -0.77400
O614        O  0.70755230  0.26328469  0.32959639    -0.77200
O615        O  0.65336600  0.21177139  0.38827967    -0.75900
Zn616      Zn  0.75358656  0.20641053  0.43389338     1.55700
O617        O  0.78500839  0.26556711  0.33021461    -0.77300
Cd618      Cd  0.68884702  0.26618647  0.37819378     1.59700
Cd619      Cd  0.73790709  0.31958463  0.43553256     1.59600
O620        O  0.64237640  0.32923701  0.38501578    -0.77200
O621        O  0.74588396  0.26262073  0.40697971    -1.87800
Cd622      Cd  0.80307052  0.26106591  0.37887735     1.59900
O623        O  0.67564480  0.36566567  0.42423112    -0.77200
O624        O  0.84998922  0.19835241  0.38497509    -0.75900
C625        C  0.74640259  0.26093567  0.49811767     0.86700
C626        C  0.66266458  0.17795573  0.40835112     0.86300
O627        O  0.81455360  0.16174832  0.42263007    -0.74800
C628        C  0.74641712  0.26475085  0.31508125     0.87100
O629        O  0.75419254  0.22275316  0.48186029    -0.74900
C630        C  0.64264776  0.36420138  0.40372952     0.87300
C631        C  0.82936203  0.34929031  0.41039695     0.87600
O632        O  0.79333841  0.35541050  0.42898610    -0.77300
C633        C  0.60352391  0.11849323  0.41360262    -0.09600
C634        C  0.63066101  0.14544912  0.41078600    -0.11200
C635        C  0.60436011  0.40370679  0.40145424    -0.09600
C636        C  0.57221569  0.43697943  0.39981943    -0.11200
C637        C  0.88692760  0.12355354  0.40133052    -0.09600
C638        C  0.91937836  0.09052740  0.39991355    -0.11200
C639        C  0.86156962  0.38163969  0.41251725    -0.09600
C640        C  0.88865441  0.40874763  0.41480118    -0.11200
C641        C  0.74743322  0.26671307  0.25107380    -0.09600
C642        C  0.74677918  0.26568592  0.28029205    -0.11200
C643        C  0.99892792  0.01764290  0.25174315    -0.09600
C644        C  0.99821949  0.01655578  0.28095773    -0.11200
C645        C  0.61498876  0.13750828  0.12054769    -0.09600
C646        C  0.64201013  0.16460215  0.11793278    -0.11200
C647        C  0.64048103  0.37947199  0.13096424    -0.09600
C648        C  0.67281033  0.34632941  0.13239580    -0.11200
C649        C  0.85787635  0.15956522  0.13023998    -0.09600
C650        C  0.82562002  0.19273706  0.13188622    -0.11200
C651        C  0.88414043  0.40125490  0.12027930    -0.09600
C652        C  0.85693168  0.37429434  0.11777151    -0.11200
C653        C  0.64430631  0.15688711  0.91398783    -0.09600
C654        C  0.61714604  0.12991380  0.91123746    -0.11200
C655        C  0.86086939  0.15167162  0.90137096    -0.09600
C656        C  0.82841188  0.18469113  0.89995611    -0.11200
C657        C  0.64349966  0.37157271  0.90147830    -0.09600
C658        C  0.67562790  0.33828604  0.89983845    -0.11200
C659        C  0.85927915  0.36653702  0.91448361    -0.09600
C660        C  0.88634335  0.39362721  0.91212219    -0.11200
C661        C  0.50037430  0.00882108  0.75107644    -0.09600
C662        C  0.50095601  0.00974225  0.78030239    -0.11200
C663        C  0.74892645  0.25766450  0.75174610    -0.09600
C664        C  0.74957156  0.25864358  0.78096865    -0.11200
C665        C  0.92213558  0.08274498  0.63187191    -0.09600
C666        C  0.88986063  0.11590136  0.63023727    -0.11200
C667        C  0.60732739  0.39605897  0.63096628    -0.09600
C668        C  0.57500046  0.42920453  0.63239405    -0.11200
C669        C  0.86365742  0.37411367  0.62068098    -0.09600
C670        C  0.89084006  0.40106170  0.61810494    -0.11200
C671        C  0.60565291  0.11086938  0.61754250    -0.09600
C672        C  0.63269504  0.13798323  0.62008163    -0.11200
O673        O  0.67956389  0.85784973  0.60950592    -0.74800
C674        C  0.83167616  0.84159736  0.62311462     0.86200
O675        O  0.75577650  0.71866821  0.54775159    -0.76000
O676        O  0.85182430  0.69027303  0.64681332    -0.77400
O677        O  0.70995574  0.75538842  0.70220550    -0.77200
O678        O  0.64429378  0.82119875  0.64723243    -0.75900
Zn679      Zn  0.74045202  0.81325860  0.59808509     1.55700
O680        O  0.78740274  0.75771272  0.70204478    -0.77300
Cd681      Cd  0.69143758  0.75862385  0.65352941     1.59700
Cd682      Cd  0.75606564  0.70009740  0.59649018     1.59600
O683        O  0.65661385  0.70381628  0.64264883    -0.77200
O684        O  0.74827779  0.75706019  0.62502906    -1.87800
Cd685      Cd  0.80562679  0.75349731  0.65344886     1.59900
O686        O  0.70060653  0.66442574  0.60329258    -0.77200
O687        O  0.84128911  0.80754002  0.64295254    -0.75900
C688        C  0.74728330  0.75870853  0.53387837     0.86700
C689        C  0.64557309  0.85643124  0.62910024     0.86300
O690        O  0.79491466  0.84765956  0.60512165    -0.74800
C691        C  0.74873992  0.75682599  0.71695114     0.87100
O692        O  0.73961236  0.79689642  0.55013113    -0.74900
C693        C  0.66493504  0.67030422  0.62219356     0.87300
C694        C  0.85150414  0.65536665  0.62805956     0.87600
O695        O  0.81844380  0.65397241  0.60758904    -0.77300
C696        C  0.53519080  0.96928089  0.63286478     0.33700
C697        C  0.96189550  0.54265429  0.63259662     0.33700
C698        C  0.98999193  0.95983885  0.61621495    -0.02500
C699        C  0.51763041  0.98752702  0.66635404    -0.03300
C700        C  0.54515528  0.51343122  0.61580751    -0.03200
C701        C  0.95178385  0.99810119  0.61606305    -0.02500
C702        C  0.97984174  0.52534417  0.66621511    -0.03300
C703        C  0.50687091  0.55165987  0.61563186    -0.03200
C704        C  0.91079004  0.97943515  0.61586808    -0.28600
N705        N  0.92269462  0.93210193  0.61490731     0.17900
C706        C  0.97045992  0.91967236  0.61612046    -0.28600
H707        H  0.98943931  0.88424644  0.62043369     0.19900
C708        C  0.96916808  0.53734184  0.69798938    -0.27600
N709        N  0.49956405  0.50770775  0.71710952     0.16600
C710        C  0.52935622  0.97712358  0.69821270    -0.27600
C711        C  0.52625556  0.59189291  0.61524956    -0.27900
N712        N  0.57401164  0.57959713  0.61431565     0.17100
H713        H  0.50716480  0.62735631  0.61930848     0.19800
C714        C  0.58605616  0.53229239  0.61565086    -0.27900
H715        H  0.62171519  0.51320804  0.62007012     0.19800
H716        H  0.55740459  0.94969566  0.70701169     0.19800
H717        H  0.87513901  0.99873665  0.61994913     0.19800
H718        H  0.94169114  0.56548493  0.70658209     0.19800
O719        O  0.54876923  0.60319434  0.92697320    -0.74800
C720        C  0.89918315  0.61210390  0.90313236     0.86200
O721        O  0.50996728  0.97437681  0.98419230    -0.76000
O722        O  0.90983240  0.95966175  0.88984938    -0.77400
O723        O  0.54019622  0.51200862  0.82971924    -0.77200
O724        O  0.59444587  0.56349298  0.88863086    -0.75900
Zn725      Zn  0.49429574  0.56891029  0.93402403     1.55700
O726        O  0.96273891  0.50972497  0.83012786    -0.77300
Cd727      Cd  0.55897043  0.50906710  0.87834354     1.59700
Cd728      Cd  0.51000942  0.95573971  0.93543647     1.59600
O729        O  0.60545213  0.94601456  0.88510754    -0.77200
O730        O  0.50196446  0.51267074  0.90699739    -1.87800
Cd731      Cd  0.94473655  0.51416547  0.87877109     1.59900
O732        O  0.57227620  0.90966351  0.92420440    -0.77200
O733        O  0.89779370  0.57685799  0.88493923    -0.75900
C734        C  0.50143247  0.51443081  0.99813444     0.86700
C735        C  0.58516906  0.59736144  0.90873070     0.86300
O736        O  0.93330535  0.61354145  0.92272052    -0.74800
C737        C  0.50131534  0.51057275  0.81509792     0.87100
O738        O  0.49367843  0.55260262  0.98195044    -0.74900
C739        C  0.60522487  0.91108669  0.90376082     0.87300
C740        C  0.91855268  0.92595843  0.91004860     0.87600
O741        O  0.95461659  0.91988414  0.92868584    -0.77300
C742        C  0.78855210  0.72470942  0.89933961     0.33700
C743        C  0.71530418  0.79811898  0.89925992     0.33700
C744        C  0.79868128  0.76919989  0.91598805    -0.02500
C745        C  0.77059602  0.74219054  0.86577149    -0.03300
C746        C  0.74351187  0.71560891  0.91624334    -0.03200
C747        C  0.76045422  0.80741552  0.91597668    -0.02500
C748        C  0.73284157  0.78003424  0.86572125    -0.03300
C749        C  0.70529010  0.75392368  0.91621474    -0.03200
C750        C  0.77983394  0.84764523  0.91634519    -0.28600
N751        N  0.82759142  0.83531399  0.91747753     0.17900
C752        C  0.83961569  0.78798826  0.91624875    -0.28600
H753        H  0.87529299  0.76881580  0.91207345     0.19900
C754        C  0.72093773  0.79042940  0.83388656    -0.27600
N755        N  0.75057768  0.75980595  0.81492831     0.16600
C756        C  0.78107292  0.73016652  0.83397917    -0.27600
C757        C  0.66429134  0.73524678  0.91633295    -0.27900
N758        N  0.67615651  0.68792748  0.91740185     0.17100
H759        H  0.62867143  0.75450511  0.91202353     0.19800
C760        C  0.72391548  0.67547327  0.91636296    -0.27900
H761        H  0.74286296  0.64001499  0.91207887     0.19800
H762        H  0.80842764  0.70195213  0.82532935     0.19800
H763        H  0.76075771  0.88309410  0.91225093     0.19800
H764        H  0.69279927  0.81781495  0.82514800     0.19800
O765        O  0.56819370  0.91761817  0.10944662    -0.74800
C766        C  0.91609660  0.93381556  0.12276472     0.86200
O767        O  0.99196939  0.55672550  0.04784494    -0.76000
O768        O  0.89593876  0.58521562  0.14675241    -0.77400
O769        O  0.53788396  0.52006951  0.20231714    -0.77200
O770        O  0.60351766  0.95434976  0.14731048    -0.75900
Zn771      Zn  0.00727120  0.96216398  0.09798770     1.55700
O772        O  0.96043608  0.51774146  0.20194458    -0.77300
Cd773      Cd  0.55634472  0.51690081  0.15366936     1.59700
Cd774      Cd  0.99161595  0.57533102  0.09662062     1.59600
O775        O  0.59112371  0.57173763  0.14299335    -0.77200
O776        O  0.99946860  0.51839724  0.12504225    -1.88200
Cd777      Cd  0.94214723  0.52199382  0.15332594     1.59900
O778        O  0.54702961  0.61104276  0.10363262    -0.77200
O779        O  0.90649052  0.96793524  0.14262112    -0.75900
C780        C  0.00047937  0.51667623  0.03389801     0.86700
C781        C  0.60222144  0.91908668  0.12910558     0.86300
O782        O  0.95283535  0.92771672  0.10483784    -0.74800
C783        C  0.99911478  0.51859735  0.21695521     0.87100
O784        O  0.00810849  0.97849682  0.05007553    -0.74900
C785        C  0.58274182  0.60521179  0.12258175     0.87300
C786        C  0.89621375  0.62008661  0.12806023     0.87600
O787        O  0.92922757  0.62144357  0.10764971    -0.77300
C788        C  0.71261042  0.80624470  0.13287260     0.33700
C789        C  0.78586844  0.73283739  0.13261242     0.33700
C790        C  0.75772375  0.81556314  0.11620679    -0.02500
C791        C  0.73033819  0.78816491  0.16636398    -0.03300
C792        C  0.70251611  0.76200548  0.11582793    -0.03200
C793        C  0.79590530  0.77729132  0.11605692    -0.02500
C794        C  0.76809801  0.75032425  0.16622881    -0.03300
C795        C  0.74079293  0.72375358  0.11565845    -0.03200
C796        C  0.83691597  0.79591948  0.11573600    -0.28600
N797        N  0.82502835  0.84324818  0.11469610     0.17900
C798        C  0.77727288  0.85571622  0.11599048    -0.28600
H799        H  0.75834664  0.89118670  0.12025666     0.19900
C800        C  0.77873400  0.73829794  0.19800034    -0.27600
N801        N  0.74833256  0.76793096  0.21711290     0.16600
C802        C  0.71858910  0.79854995  0.19821668    -0.27600
C803        C  0.72137976  0.68353339  0.11539795    -0.27900
N804        N  0.67362150  0.69583848  0.11453819     0.17100
H805        H  0.74048797  0.64810184  0.11951274     0.19800
C806        C  0.66160674  0.74315302  0.11578786    -0.27900
H807        H  0.62599304  0.76228340  0.12025174     0.19800
H808        H  0.69047174  0.82591069  0.20700791     0.19800
H809        H  0.87259685  0.77662918  0.11976832     0.19800
H810        H  0.80611944  0.71006939  0.20659338     0.19800
C811        C  0.95925402  0.55052233  0.39930388     0.33700
C812        C  0.53252012  0.97713004  0.39923860     0.33700
C813        C  0.94924045  0.50611662  0.41596685    -0.02500
C814        C  0.97705257  0.53287558  0.36573977    -0.03300
C815        C  0.50437749  0.55974141  0.41620005    -0.03200
C816        C  0.98746734  0.96791825  0.41596833    -0.02500
C817        C  0.51481823  0.49504240  0.36569724    -0.03300
C818        C  0.54262153  0.52143222  0.41617748    -0.03200
C819        C  0.96811194  0.92767957  0.41645975    -0.28600
N820        N  0.92035937  0.94000868  0.41766412     0.17900
C821        C  0.90831048  0.98732516  0.41635062    -0.28600
H822        H  0.87259557  0.50645697  0.41221242     0.19900
C823        C  0.52673945  0.98465985  0.33386942    -0.27600
N824        N  0.99712424  0.51529647  0.31490885     0.16600
C825        C  0.96660530  0.54491774  0.33395058    -0.27600
C826        C  0.58360376  0.54014157  0.41618038    -0.27900
N827        N  0.57172562  0.58746580  0.41717030     0.17100
H828        H  0.61919143  0.52086749  0.41182642     0.19800
C829        C  0.52395959  0.59988774  0.41620593    -0.27900
H830        H  0.50496314  0.63530216  0.41187296     0.19800
H831        H  0.93932242  0.57319736  0.32530020     0.19800
H832        H  0.98716757  0.89219785  0.41242143     0.19800
H833        H  0.55496229  0.95735607  0.32514116     0.19800
O834        O  0.69909996  0.67215627  0.42665043    -0.74800
C835        C  0.84863223  0.66314039  0.40309567     0.86200
O836        O  0.73788672  0.80097926  0.48424712    -0.76000
O837        O  0.83802219  0.81554776  0.39015636    -0.77400
O838        O  0.70754854  0.76328169  0.32959394    -0.77200
O839        O  0.65336509  0.71177041  0.38828024    -0.75900
Zn840      Zn  0.75358920  0.70641076  0.43389069     1.55700
O841        O  0.78500335  0.76557071  0.33021137    -0.77300
Cd842      Cd  0.68884469  0.76618470  0.37819145     1.59700
Cd843      Cd  0.73790323  0.81958411  0.43552971     1.59600
O844        O  0.64237248  0.82923433  0.38501314    -0.77200
O845        O  0.74588250  0.76262060  0.40697662    -1.87800
Cd846      Cd  0.80306816  0.76106757  0.37887391     1.59900
O847        O  0.67564045  0.86566414  0.42422801    -0.77200
O848        O  0.84998887  0.69835399  0.38497024    -0.75900
C849        C  0.74640237  0.76093509  0.49811487     0.86700
C850        C  0.66266549  0.67795596  0.40835244     0.86300
O851        O  0.81455650  0.66174945  0.42262663    -0.74800
C852        C  0.74641230  0.76475125  0.31507843     0.87100
O853        O  0.75419603  0.72275270  0.48185747    -0.74900
C854        C  0.64264322  0.86419891  0.40372675     0.87300
C855        C  0.82935759  0.84929160  0.41039613     0.87600
O856        O  0.79333347  0.85541074  0.42898470    -0.77300
C857        C  0.60352417  0.61849582  0.41360962    -0.09600
C858        C  0.63066158  0.64545067  0.41079058    -0.11200
C859        C  0.60435457  0.90370338  0.40145187    -0.09600
C860        C  0.57220954  0.93697548  0.39981777    -0.11200
C861        C  0.88693060  0.62355583  0.40132643    -0.09600
C862        C  0.91938213  0.59053002  0.39991087    -0.11200
C863        C  0.86156495  0.88164081  0.41251859    -0.09600
C864        C  0.88864971  0.90874836  0.41480511    -0.11200
C865        C  0.74742681  0.76671307  0.25107105    -0.09600
C866        C  0.74677339  0.76568638  0.28028927    -0.11200
C867        C  0.99894872  0.51765500  0.25174319    -0.09600
C868        C  0.99824144  0.51656866  0.28095776    -0.11200
C869        C  0.61498385  0.63751387  0.12053763    -0.09600
C870        C  0.64200529  0.66460733  0.11792280    -0.11200
C871        C  0.64048243  0.87947398  0.13096275    -0.09600
C872        C  0.67281142  0.84633122  0.13239273    -0.11200
C873        C  0.85787211  0.65956258  0.13024170    -0.09600
C874        C  0.82561582  0.69273450  0.13188611    -0.11200
C875        C  0.88414391  0.90124924  0.12027224    -0.09600
C876        C  0.85693511  0.87428885  0.11776520    -0.11200
C877        C  0.64430709  0.65688550  0.91397619    -0.09600
C878        C  0.61714633  0.62991217  0.91122609    -0.11200
C879        C  0.86087053  0.65167438  0.90137182    -0.09600
C880        C  0.82841344  0.68469381  0.89995490    -0.11200
C881        C  0.64350032  0.87157198  0.90147831    -0.09600
C882        C  0.67562868  0.83828586  0.89983685    -0.11200
C883        C  0.85927947  0.86653977  0.91447485    -0.09600
C884        C  0.88634393  0.89362981  0.91211208    -0.11200
C885        C  0.50034683  0.50880761  0.75107779    -0.09600
C886        C  0.50092989  0.50972993  0.78030368    -0.11200
C887        C  0.74893214  0.75766990  0.75174350    -0.09600
C888        C  0.74957743  0.75864877  0.78096604    -0.11200
C889        C  0.92212976  0.58274071  0.63186964    -0.09600
C890        C  0.88985597  0.61589801  0.63023364    -0.11200
C891        C  0.60733082  0.89606162  0.63096178    -0.09600
C892        C  0.57500465  0.92920765  0.63238975    -0.11200
C893        C  0.86365771  0.87411653  0.62068273    -0.09600
C894        C  0.89084031  0.90106522  0.61810987    -0.11200
C895        C  0.60564950  0.61087016  0.61755222    -0.09600
C896        C  0.63269154  0.63798480  0.62008866    -0.11200
loop_ 
_geom_bond_atom_site_label_1 
_geom_bond_atom_site_label_2 
_geom_bond_distance 
_geom_bond_site_symmetry_2 
_ccdc_geom_bond_type 
O1           C17   1.274       .  A
O1           Zn7   2.025       .  S
C2           O18   1.273       .  A
C2           O15   1.273       .  A
C2          C221   1.434       .  S
O3           C16   1.276       .  A
O3          Cd10   2.083       .  S
O4           C22   1.273       .  A
O4          Cd13   2.069       .  S
O5           C19   1.273       .  A
O5           Cd9   2.074       .  S
O6           C17   1.272       .  A
O6           Cd9   2.066       .  S
Zn7          O18   2.021       .  S
Zn7          O20   2.035       .  S
Zn7          O12   1.951       .  S
O8           C19   1.273       .  A
O8          Cd13   2.071       .  S
Cd9          O11   2.073       .  S
Cd9          O12   2.005       .  S
Cd10         O14   2.070       .  S
Cd10         O23   2.074       .  S
Cd10         O12   2.003       .  S
O11          C21   1.274       .  A
O12         Cd13   2.004       .  S
Cd13         O15   2.069       .  S
O14          C21   1.273       .  A
C16          O20   1.276       .  A
C16         C177   1.477       .  S
C17         C219   1.434       .  S
C19         C215   1.436       .  S
C21         C224   1.434       .  S
C22          O23   1.274       .  A
C22         C218   1.434       .  S
C24          C27   1.531       .  S
C24         C474   1.533   1_455  S
C24         C252   1.534       .  S
C24         C220   1.469       .  S
C25          C30   1.531       .  S
C25         C253   1.532   1_545  S
C25         C479   1.533       .  S
C25         C217   1.468       .  S
C26         C472   1.533       .  S
C26          C34   1.381       .  A
C26          C29   1.406       .  A
C27          C38   1.376       .  A
C27         C702   1.390   1_455  A
C28         C248   1.534   1_545  S
C28          C42   1.382       .  A
C28          C31   1.407       .  A
C29         C249   1.532       .  S
C29          C32   1.381       .  A
C30          C36   1.376       .  A
C30         C699   1.390   1_545  A
C31         C473   1.533   1_455  S
C31          C39   1.381       .  A
C32          N33   1.350       .  A
C32          H45   1.083       .  S
N33          C34   1.350       .  A
N33         C222   1.401       .  S
C34          H35   1.083       .  S
C36         N485   1.356       .  A
C36          H46   1.082       .  S
N37         C484   1.356       .  A
N37         C262   1.357   1_645  A
N37         C213   1.402   1_655  S
C38         N261   1.357   1_455  A
C38          H44   1.082       .  S
C39          N40   1.349       .  A
C39          H41   1.083       .  S
N40          C42   1.350       .  A
N40         C223   1.401       .  S
C42          H43   1.083       .  S
O47          C63   1.273       .  A
O47         Zn53   2.021   1_455  S
C48          O64   1.274       .  A
C48          O61   1.272       .  A
C48         C207   1.434       .  S
O49         C286   1.276       .  A
O49         Cd56   2.082       .  S
O50          C68   1.273       .  A
O50        Cd283   2.072       .  S
O51          C65   1.273       .  A
O51         Cd55   2.074       .  S
O52          C63   1.273       .  A
O52         Cd55   2.071       .  S
Zn53         O66   2.035       .  S
Zn53        O512   2.026       .  S
Zn53         O58   1.951   1_655  S
O54         C513   1.273       .  A
O54         Cd59   2.071       .  S
Cd55        O281   2.070   1_545  S
Cd55         O58   2.006       .  S
Cd56         O60   2.073       .  S
Cd56        O517   2.070   1_455  S
Cd56        O282   2.003       .  S
O57          C67   1.273       .  A
O57        Cd279   2.070       .  S
O58        Cd280   2.003   1_545  S
O58        Cd507   2.003   1_455  S
Cd59         O61   2.065       .  S
Cd59        O274   2.072   1_545  S
Cd59        O506   2.003       .  S
O60          C67   1.274       .  A
C62          O66   1.276   1_455  A
C62         O273   1.276   1_545  A
C62         C556   1.477   1_556  S
C63         C206   1.435       .  S
O64        Zn501   2.026       .  S
C65         O502   1.273   1_455  A
C65         C214   1.436       .  S
C67         C209   1.434       .  S
C68          O69   1.273       .  A
C68         C212   1.434       .  S
O69        Cd504   2.070       .  S
C70          C72   1.533       .  S
C70          C74   1.534       .  S
C70          C73   1.531       .  S
C70         C208   1.469       .  S
C71          C75   1.532       .  S
C71          C77   1.533       .  S
C71          C76   1.531       .  S
C71         C210   1.468       .  S
C72          C80   1.382       .  A
C72          C75   1.405       .  A
C73          C84   1.376       .  A
C73          C76   1.390       .  A
C74          C88   1.381       .  A
C74          C77   1.407       .  A
C75          C78   1.380       .  A
C76          C82   1.376       .  A
C77          C85   1.382       .  A
C78          N79   1.349       .  A
C78          H91   1.083       .  S
N79          C80   1.350       .  A
N79         C211   1.401       .  S
C80          H81   1.083       .  S
C82          N83   1.357       .  A
C82          H92   1.082       .  S
N83          C84   1.356       .  A
N83         C216   1.402       .  S
C84          H90   1.082       .  S
C85          N86   1.350       .  A
C85          H87   1.083       .  S
N86          C88   1.350       .  A
N86         C205   1.402       .  S
C88          H89   1.083       .  S
O93         C109   1.274       .  A
O93        Zn547   2.024       .  S
C94         O110   1.273       .  A
C94         O107   1.273       .  A
C94         C203   1.435       .  S
O95         C108   1.276       .  A
O95        Cd102   2.082       .  S
O96         C114   1.273       .  A
O96        Cd105   2.069       .  S
O97         C559   1.273   1_455  A
O97        Cd101   2.075       .  S
O98         C109   1.272       .  A
O98        Cd325   2.066       .  S
Zn99        O110   2.022       .  S
Zn99        O112   2.035       .  S
Zn99        O541   2.024       .  S
Zn99        O328   1.951       .  S
O100        C111   1.273       .  A
O100       Cd105   2.071       .  S
Cd101       O103   2.074       .  S
Cd101       O322   2.066   1_545  S
Cd101       O552   2.005   1_455  S
Cd102       O115   2.074       .  S
Cd102       O554   2.069       .  S
Cd102       O104   2.003       .  S
O103        C113   1.274       .  A
O104       Zn323   1.951   1_545  S
O104       Cd105   2.004       .  S
O104       Cd549   2.005       .  S
Cd105       O331   2.068   1_545  S
O106        C113   1.273       .  A
O106       Cd550   2.069   1_455  S
O107       Cd329   2.068       .  S
C108        O336   1.276   1_545  A
C108        C510   1.477   1_554  S
C109        C199   1.434       .  S
C111        O545   1.273       .  A
C111        C195   1.436       .  S
O112        C332   1.276       .  A
C113        C197   1.434       .  S
C114        O115   1.274       .  A
C114        C201   1.434       .  S
C116        C118   1.533       .  S
C116        C120   1.534       .  S
C116        C119   1.531       .  S
C116        C200   1.469       .  S
C117        C121   1.532       .  S
C117        C123   1.533       .  S
C117        C122   1.531       .  S
C117        C202   1.468       .  S
C118        C126   1.381       .  A
C118        C121   1.405       .  A
C119        C130   1.376       .  A
C119        C122   1.390       .  A
C120        C134   1.382       .  A
C120        C123   1.407       .  A
C121        C124   1.381       .  A
C122        C128   1.376       .  A
C123        C131   1.381       .  A
C124        N125   1.350       .  A
C124        H137   1.083       .  S
N125        C126   1.350       .  A
N125        C204   1.401       .  S
C126        H127   1.083       .  S
C128        N129   1.356       .  A
C128        H138   1.082       .  S
N129        C130   1.356       .  A
N129        C193   1.402       .  S
C130        H136   1.082       .  S
C131        N132   1.349       .  A
C131        H133   1.083       .  S
N132        C134   1.350       .  A
N132        C198   1.401       .  S
C134        H135   1.083       .  S
C139        C141   1.533       .  S
C139        C142   1.531       .  S
C139        C591   1.534       .  S
C139        C190   1.469       .  S
C140        C592   1.532   1_455  S
C140        C370   1.533       .  S
C140        C369   1.531       .  S
C140        C188   1.468       .  S
C141        C373   1.382   1_545  A
C141        C368   1.405   1_545  A
C142        C153   1.376       .  A
C142        C593   1.390   1_545  A
C143        C587   1.534   1_455  S
C143        C157   1.381       .  A
C143        C146   1.407       .  A
C144        C588   1.532       .  S
C144        C147   1.380       .  A
C144        C365   1.405       .  A
C145        C364   1.531       .  S
C145        C590   1.390   1_465  A
C145        C375   1.376       .  A
C146        C364   1.533   1_545  S
C146        C154   1.382       .  A
C147        N148   1.350       .  A
C147        H160   1.083       .  S
N148        C149   1.351       .  A
N148        C192   1.401       .  S
C149        C365   1.382       .  A
C149        H374   1.083       .  S
H150        C373   1.083   1_545  S
C151        C369   1.376       .  A
C151        N824   1.357   1_455  A
C151        H161   1.082       .  S
N152        C153   1.356       .  A
N152        C823   1.357   1_545  A
N152        C196   1.402       .  S
C153        H159   1.082       .  S
C154        N155   1.350       .  A
C154        H156   1.083       .  S
N155        C157   1.350       .  A
N155        C185   1.402       .  S
C157        H158   1.083       .  S
O162        C178   1.273       .  A
O162       Zn168   2.021       .  S
C163        O179   1.274       .  A
C163        O176   1.272       .  A
C163        C189   1.434       .  S
O164        C177   1.276       .  A
O164       Cd171   2.082       .  S
O165        C183   1.273       .  A
O165       Cd174   2.071       .  S
O166        C180   1.273       .  A
O166       Cd170   2.074       .  S
O167        C178   1.273       .  A
O167       Cd170   2.071       .  S
Zn168       O179   2.026       .  S
Zn168       O181   2.035       .  S
Zn168       O173   1.950       .  S
O169        C180   1.273       .  A
O169       Cd174   2.071       .  S
Cd170       O172   2.069       .  S
Cd170       O173   2.006       .  S
Cd171       O175   2.073       .  S
Cd171       O184   2.071       .  S
Cd171       O173   2.004       .  S
O172        C182   1.273       .  A
O173       Cd174   2.003       .  S
Cd174       O176   2.065       .  S
O175        C182   1.274       .  A
C177        O181   1.276       .  A
C178        C186   1.435       .  S
C180        C194   1.436       .  S
C182        C187   1.434       .  S
C183        O184   1.273       .  A
C183        C191   1.434       .  S
C185        C186   1.206       .  T
C187        C188   1.205       .  T
C189        C190   1.205       .  T
C191        C192   1.205       .  T
C193        C194   1.206       .  T
C195        C196   1.206       .  T
C197        C198   1.205       .  T
C199        C200   1.205       .  T
C201        C202   1.205       .  T
C203        C204   1.206       .  T
C205        C206   1.206       .  T
C207        C208   1.205       .  T
C209        C210   1.205       .  T
C211        C212   1.205       .  T
C213        C214   1.206       .  T
C215        C216   1.206       .  T
C217        C218   1.205       .  T
C219        C220   1.205       .  T
C221        C222   1.206       .  T
C223        C224   1.205       .  T
O225        C241   1.274       .  A
O225       Zn231   2.025       .  S
C226        O242   1.273       .  A
C226        O239   1.273       .  A
C226        C445   1.434       .  S
O227        C240   1.276       .  A
O227       Cd234   2.083       .  S
O228        C246   1.273       .  A
O228       Cd237   2.069       .  S
O229        C243   1.273       .  A
O229       Cd233   2.074       .  S
O230        C241   1.272       .  A
O230       Cd233   2.066       .  S
Zn231       O242   2.021       .  S
Zn231       O244   2.035       .  S
Zn231       O236   1.951       .  S
O232        C243   1.273       .  A
O232       Cd237   2.071       .  S
Cd233       O235   2.073       .  S
Cd233       O236   2.005       .  S
Cd234       O238   2.070       .  S
Cd234       O247   2.074       .  S
Cd234       O236   2.003       .  S
O235        C245   1.274       .  A
O236       Cd237   2.004       .  S
Cd237       O239   2.069       .  S
O238        C245   1.273       .  A
C240        O244   1.276       .  A
C240        C401   1.477       .  S
C241        C443   1.434       .  S
C243        C439   1.436       .  S
C245        C448   1.434       .  S
C246        O247   1.274       .  A
C246        C442   1.434       .  S
C248        C698   1.533   1_455  S
C248        C251   1.531       .  S
C248        C444   1.469       .  S
C249        C703   1.533       .  S
C249        C254   1.531       .  S
C249        C441   1.468       .  S
C250        C696   1.533       .  S
C250        C258   1.381       .  A
C250        C253   1.406       .  A
C251        C262   1.376       .  A
C251        C478   1.390   1_465  A
C252        C266   1.382       .  A
C252        C255   1.407       .  A
C253        C256   1.381       .  A
C254        C475   1.390       .  A
C254        C260   1.376       .  A
C255        C697   1.533   1_455  S
C255        C263   1.381       .  A
C256        N257   1.350       .  A
C256        H269   1.083       .  S
N257        C258   1.350       .  A
N257        C446   1.401       .  S
C258        H259   1.083       .  S
C260        N709   1.356       .  A
C260        H270   1.082       .  S
N261        C708   1.356       .  A
N261        C437   1.402   1_655  S
C262        H268   1.082       .  S
C263        N264   1.349       .  A
C263        H265   1.083       .  S
N264        C266   1.350       .  A
N264        C447   1.401       .  S
C266        H267   1.083       .  S
O271        C287   1.273       .  A
O271       Zn277   2.021   1_455  S
C272        O288   1.274       .  A
C272        O285   1.272       .  A
C272        C431   1.434       .  S
O273       Cd280   2.082       .  S
O274        C292   1.273       .  A
O275        C289   1.273       .  A
O275       Cd279   2.074       .  S
O276        C287   1.273       .  A
O276       Cd279   2.071       .  S
Zn277       O736   2.026       .  S
Zn277       O290   2.035       .  S
Zn277       O282   1.951   1_655  S
O278        C737   1.273       .  A
O278       Cd283   2.071       .  S
Cd279       O282   2.006       .  S
Cd280       O284   2.073       .  S
Cd280       O741   2.070   1_455  S
O281        C291   1.273       .  A
O282       Cd731   2.003   1_455  S
Cd283       O285   2.065       .  S
Cd283       O730   2.003       .  S
O284        C291   1.274       .  A
C286        O290   1.276   1_455  A
C286        C780   1.477   1_556  S
C287        C430   1.435       .  S
O288       Zn725   2.026       .  S
C289        O726   1.273   1_455  A
C289        C438   1.436       .  S
C291        C433   1.434       .  S
C292        O293   1.273       .  A
C292        C436   1.434       .  S
O293       Cd728   2.070       .  S
C294        C296   1.533       .  S
C294        C298   1.534       .  S
C294        C297   1.531       .  S
C294        C432   1.469       .  S
C295        C299   1.532       .  S
C295        C301   1.533       .  S
C295        C300   1.531       .  S
C295        C434   1.468       .  S
C296        C304   1.382       .  A
C296        C299   1.405       .  A
C297        C308   1.376       .  A
C297        C300   1.390       .  A
C298        C312   1.381       .  A
C298        C301   1.407       .  A
C299        C302   1.380       .  A
C300        C306   1.376       .  A
C301        C309   1.382       .  A
C302        N303   1.349       .  A
C302        H315   1.083       .  S
N303        C304   1.350       .  A
N303        C435   1.401       .  S
C304        H305   1.083       .  S
C306        N307   1.357       .  A
C306        H316   1.082       .  S
N307        C308   1.356       .  A
N307        C440   1.402       .  S
C308        H314   1.082       .  S
C309        N310   1.350       .  A
C309        H311   1.083       .  S
N310        C312   1.350       .  A
N310        C429   1.402       .  S
C312        H313   1.083       .  S
O317        C333   1.274       .  A
O317       Zn771   2.024       .  S
C318        O334   1.273       .  A
C318        O331   1.273       .  A
C318        C427   1.435       .  S
O319        C332   1.276       .  A
O319       Cd326   2.082       .  S
O320        C338   1.273       .  A
O320       Cd329   2.069       .  S
O321        C783   1.273   1_455  A
O321       Cd325   2.075       .  S
O322        C333   1.272       .  A
Zn323       O765   2.024       .  S
Zn323       O334   2.022       .  S
Zn323       O336   2.035       .  S
O324        C335   1.273       .  A
O324       Cd329   2.071       .  S
Cd325       O327   2.074       .  S
Cd325       O776   2.005   1_455  S
Cd326       O778   2.069       .  S
Cd326       O339   2.074       .  S
Cd326       O328   2.003       .  S
O327        C337   1.274       .  A
O328       Cd773   2.005       .  S
O328       Cd329   2.004       .  S
O330        C337   1.273       .  A
O330       Cd774   2.069   1_455  S
C332        C734   1.477   1_554  S
C333        C423   1.434       .  S
C335        O769   1.273       .  A
C335        C419   1.436       .  S
C337        C421   1.434       .  S
C338        O339   1.274       .  A
C338        C425   1.434       .  S
C340        C342   1.533       .  S
C340        C344   1.534       .  S
C340        C343   1.531       .  S
C340        C424   1.469       .  S
C341        C345   1.532       .  S
C341        C347   1.533       .  S
C341        C346   1.531       .  S
C341        C426   1.468       .  S
C342        C350   1.381       .  A
C342        C345   1.405       .  A
C343        C354   1.376       .  A
C343        C346   1.390       .  A
C344        C358   1.382       .  A
C344        C347   1.407       .  A
C345        C348   1.381       .  A
C346        C352   1.376       .  A
C347        C355   1.381       .  A
C348        N349   1.350       .  A
C348        H361   1.083       .  S
N349        C350   1.350       .  A
N349        C428   1.401       .  S
C350        H351   1.083       .  S
C352        N353   1.356       .  A
C352        H362   1.082       .  S
N353        C354   1.356       .  A
N353        C417   1.402       .  S
C354        H360   1.082       .  S
C355        N356   1.349       .  A
C355        H357   1.083       .  S
N356        C358   1.350       .  A
N356        C422   1.401       .  S
C358        H359   1.083       .  S
C363        C365   1.533       .  S
C363        C815   1.534       .  S
C363        C366   1.531       .  S
C363        C414   1.469       .  S
C364        C816   1.532   1_455  S
C364        C412   1.468       .  S
C366        C377   1.376       .  A
C366        C817   1.390       .  A
C367        C811   1.534   1_455  S
C367        C381   1.381       .  A
C367        C370   1.407       .  A
C368        C812   1.532       .  S
C368        C371   1.380       .  A
C369        C814   1.390   1_455  A
C370        C378   1.382       .  A
C371        N372   1.350       .  A
C371        H384   1.083       .  S
N372        C373   1.351       .  A
N372        C416   1.401       .  S
C375        N600   1.357   1_465  A
C375        H385   1.082       .  S
N376        C599   1.357       .  A
N376        C377   1.356       .  A
N376        C420   1.402       .  S
C377        H383   1.082       .  S
C378        N379   1.350       .  A
C378        H380   1.083       .  S
N379        C381   1.350       .  A
N379        C409   1.402       .  S
C381        H382   1.083       .  S
O386        C402   1.273       .  A
O386       Zn392   2.021       .  S
C387        O403   1.274       .  A
C387        O400   1.272       .  A
C387        C413   1.434       .  S
O388        C401   1.276       .  A
O388       Cd395   2.082       .  S
O389        C407   1.273       .  A
O389       Cd398   2.071       .  S
O390        C404   1.273       .  A
O390       Cd394   2.074       .  S
O391        C402   1.273       .  A
O391       Cd394   2.071       .  S
Zn392       O403   2.026       .  S
Zn392       O405   2.035       .  S
Zn392       O397   1.950       .  S
O393        C404   1.273       .  A
O393       Cd398   2.071       .  S
Cd394       O396   2.069       .  S
Cd394       O397   2.006       .  S
Cd395       O399   2.073       .  S
Cd395       O408   2.070       .  S
Cd395       O397   2.004       .  S
O396        C406   1.273       .  A
O397       Cd398   2.003       .  S
Cd398       O400   2.065       .  S
O399        C406   1.274       .  A
C401        O405   1.276       .  A
C402        C410   1.435       .  S
C404        C418   1.436       .  S
C406        C411   1.434       .  S
C407        O408   1.273       .  A
C407        C415   1.434       .  S
C409        C410   1.206       .  T
C411        C412   1.205       .  T
C413        C414   1.205       .  T
C415        C416   1.205       .  T
C417        C418   1.206       .  T
C419        C420   1.206       .  T
C421        C422   1.205       .  T
C423        C424   1.205       .  T
C425        C426   1.205       .  T
C427        C428   1.206       .  T
C429        C430   1.206       .  T
C431        C432   1.205       .  T
C433        C434   1.205       .  T
C435        C436   1.205       .  T
C437        C438   1.206       .  T
C439        C440   1.206       .  T
C441        C442   1.205       .  T
C443        C444   1.205       .  T
C445        C446   1.206       .  T
C447        C448   1.205       .  T
O449        C465   1.274       .  A
O449       Zn455   2.025       .  S
C450        O466   1.273       .  A
C450        O463   1.273       .  A
C450        C669   1.434       .  S
O451        C464   1.276       .  A
O451       Cd458   2.083       .  S
O452        C470   1.273       .  A
O452       Cd461   2.069       .  S
O453        C467   1.273       .  A
O453       Cd457   2.074       .  S
O454        C465   1.272       .  A
O454       Cd457   2.066       .  S
Zn455       O466   2.021       .  S
Zn455       O468   2.035       .  S
Zn455       O460   1.951       .  S
O456        C467   1.273       .  A
O456       Cd461   2.071       .  S
Cd457       O459   2.073       .  S
Cd457       O460   2.005       .  S
Cd458       O462   2.070       .  S
Cd458       O471   2.074       .  S
Cd458       O460   2.003       .  S
O459        C469   1.274       .  A
O460       Cd461   2.004       .  S
Cd461       O463   2.069       .  S
O462        C469   1.273       .  A
C464        O468   1.276       .  A
C464        C625   1.477       .  S
C465        C667   1.434       .  S
C467        C663   1.436       .  S
C469        C672   1.434       .  S
C470        O471   1.274       .  A
C470        C666   1.434       .  S
C472        C700   1.534       .  S
C472        C475   1.531       .  S
C472        C668   1.469       .  S
C473        C701   1.532   1_545  S
C473        C478   1.531       .  S
C473        C665   1.468       .  S
C474        C482   1.381       .  A
C474        C477   1.406       .  A
C475        C486   1.376       .  A
C476        C696   1.534   1_545  S
C476        C490   1.382       .  A
C476        C479   1.407       .  A
C477        C697   1.532       .  S
C477        C480   1.381       .  A
C478        C484   1.376       .  A
C479        C487   1.381       .  A
C480        N481   1.350       .  A
C480        H493   1.083       .  S
N481        C482   1.350       .  A
N481        C670   1.401       .  S
C482        H483   1.083       .  S
C484        H494   1.082       .  S
N485        C710   1.357   1_545  A
N485        C661   1.402       .  S
C486        N709   1.357       .  A
C486        H492   1.082       .  S
C487        N488   1.349       .  A
C487        H489   1.083       .  S
N488        C490   1.350       .  A
N488        C671   1.401       .  S
C490        H491   1.083       .  S
O495        C511   1.273       .  A
O495       Zn501   2.021       .  S
C496        O512   1.274       .  A
C496        O509   1.272       .  A
C496        C655   1.434       .  S
O497        C734   1.276       .  A
O497       Cd504   2.082       .  S
O498        C516   1.273       .  A
O498       Cd731   2.072       .  S
O499        C513   1.273       .  A
O499       Cd503   2.074       .  S
O500        C511   1.273       .  A
O500       Cd503   2.071       .  S
Zn501       O514   2.035       .  S
Zn501       O506   1.951       .  S
O502       Cd507   2.071       .  S
Cd503       O729   2.070   1_545  S
Cd503       O506   2.006       .  S
Cd504       O508   2.073       .  S
Cd504       O730   2.003       .  S
O505        C515   1.273       .  A
O505       Cd727   2.070       .  S
O506       Cd728   2.003   1_545  S
Cd507       O722   2.072   1_545  S
Cd507       O509   2.065       .  S
O508        C515   1.274       .  A
C510        O721   1.276   1_545  A
C510        O514   1.276       .  A
C511        C654   1.435       .  S
C513        C662   1.436       .  S
C515        C657   1.434       .  S
C516        O517   1.273       .  A
C516        C660   1.434       .  S
C518        C520   1.533       .  S
C518        C522   1.534       .  S
C518        C521   1.531       .  S
C518        C656   1.469       .  S
C519        C523   1.532       .  S
C519        C525   1.533       .  S
C519        C524   1.531       .  S
C519        C658   1.468       .  S
C520        C528   1.382       .  A
C520        C523   1.405       .  A
C521        C532   1.376       .  A
C521        C524   1.390       .  A
C522        C536   1.381       .  A
C522        C525   1.407       .  A
C523        C526   1.380       .  A
C524        C530   1.376       .  A
C525        C533   1.382       .  A
C526        N527   1.349       .  A
C526        H539   1.083       .  S
N527        C528   1.350       .  A
N527        C659   1.401       .  S
C528        H529   1.083       .  S
C530        N531   1.357       .  A
C530        H540   1.082       .  S
N531        C532   1.356       .  A
N531        C664   1.402       .  S
C532        H538   1.082       .  S
C533        N534   1.350       .  A
C533        H535   1.083       .  S
N534        C536   1.350       .  A
N534        C653   1.402       .  S
C536        H537   1.083       .  S
O541        C557   1.274       .  A
C542        O558   1.273       .  A
C542        O555   1.273       .  A
C542        C651   1.435       .  S
O543        C556   1.276   1_655  A
O543       Cd550   2.082       .  S
O544        C562   1.273       .  A
O544       Cd553   2.069       .  S
O545       Cd549   2.075       .  S
O546        C557   1.272       .  A
O546       Cd773   2.066       .  S
Zn547       O558   2.022   1_455  S
Zn547       O560   2.035       .  S
Zn547       O776   1.951   1_455  S
O548        C559   1.273       .  A
O548       Cd553   2.071       .  S
Cd549       O770   2.066   1_545  S
Cd549       O551   2.074       .  S
Cd550       O563   2.074       .  S
Cd550       O552   2.003       .  S
O551        C561   1.274       .  A
O552       Zn771   1.951   1_645  S
O552       Cd553   2.004       .  S
Cd553       O779   2.068   1_545  S
O554        C561   1.273       .  A
O555       Cd777   2.068       .  S
C556        O784   1.276   1_545  A
C557        C647   1.434       .  S
C559        C643   1.436       .  S
O560        C780   1.276       .  A
C561        C645   1.434       .  S
C562        O563   1.274       .  A
C562        C649   1.434       .  S
C564        C566   1.533       .  S
C564        C568   1.534       .  S
C564        C567   1.531       .  S
C564        C648   1.469       .  S
C565        C569   1.532       .  S
C565        C571   1.533       .  S
C565        C570   1.531       .  S
C565        C650   1.468       .  S
C566        C574   1.381       .  A
C566        C569   1.405       .  A
C567        C578   1.376       .  A
C567        C570   1.390       .  A
C568        C582   1.382       .  A
C568        C571   1.407       .  A
C569        C572   1.381       .  A
C570        C576   1.376       .  A
C571        C579   1.381       .  A
C572        N573   1.350       .  A
C572        H585   1.083       .  S
N573        C574   1.350       .  A
N573        C652   1.401       .  S
C574        H575   1.083       .  S
C576        N577   1.356       .  A
C576        H586   1.082       .  S
N577        C578   1.356       .  A
N577        C641   1.402       .  S
C578        H584   1.082       .  S
C579        N580   1.349       .  A
C579        H581   1.083       .  S
N580        C582   1.350       .  A
N580        C646   1.401       .  S
C582        H583   1.083       .  S
C587        C589   1.533       .  S
C587        C590   1.531       .  S
C587        C638   1.469       .  S
C588        C818   1.533       .  S
C588        C817   1.531       .  S
C588        C636   1.468       .  S
C589        C821   1.382   1_545  A
C589        C816   1.405   1_545  A
C590        C601   1.376       .  A
C591        C605   1.381       .  A
C591        C594   1.407       .  A
C592        C813   1.405       .  A
C592        C595   1.380       .  A
C593        C812   1.531       .  S
C593        C823   1.376       .  A
C594        C812   1.533   1_545  S
C594        C602   1.382       .  A
C595        N596   1.350       .  A
C595        H608   1.083       .  S
N596        C597   1.351       .  A
N596        C640   1.401       .  S
C597        C813   1.382       .  A
C597        H822   1.083       .  S
H598        C821   1.083   1_545  S
C599        C817   1.376       .  A
C599        H609   1.082       .  S
N600        C601   1.356       .  A
N600        C644   1.402       .  S
C601        H607   1.082       .  S
C602        N603   1.350       .  A
C602        H604   1.083       .  S
N603        C605   1.350       .  A
N603        C633   1.402       .  S
C605        H606   1.083       .  S
O610        C626   1.273       .  A
O610       Zn616   2.021       .  S
C611        O627   1.274       .  A
C611        O624   1.272       .  A
C611        C637   1.434       .  S
O612        C625   1.276       .  A
O612       Cd619   2.082       .  S
O613        C631   1.273       .  A
O613       Cd622   2.071       .  S
O614        C628   1.273       .  A
O614       Cd618   2.074       .  S
O615        C626   1.273       .  A
O615       Cd618   2.071       .  S
Zn616       O627   2.026       .  S
Zn616       O629   2.035       .  S
Zn616       O621   1.950       .  S
O617        C628   1.273       .  A
O617       Cd622   2.071       .  S
Cd618       O620   2.069       .  S
Cd618       O621   2.006       .  S
Cd619       O623   2.073       .  S
Cd619       O632   2.071       .  S
Cd619       O621   2.004       .  S
O620        C630   1.273       .  A
O621       Cd622   2.003       .  S
Cd622       O624   2.065       .  S
O623        C630   1.274       .  A
C625        O629   1.276       .  A
C626        C634   1.435       .  S
C628        C642   1.436       .  S
C630        C635   1.434       .  S
C631        O632   1.273       .  A
C631        C639   1.434       .  S
C633        C634   1.206       .  T
C635        C636   1.205       .  T
C637        C638   1.205       .  T
C639        C640   1.205       .  T
C641        C642   1.206       .  T
C643        C644   1.206       .  T
C645        C646   1.205       .  T
C647        C648   1.205       .  T
C649        C650   1.205       .  T
C651        C652   1.206       .  T
C653        C654   1.206       .  T
C655        C656   1.205       .  T
C657        C658   1.205       .  T
C659        C660   1.205       .  T
C661        C662   1.206       .  T
C663        C664   1.206       .  T
C665        C666   1.205       .  T
C667        C668   1.205       .  T
C669        C670   1.206       .  T
C671        C672   1.205       .  T
O673        C689   1.274       .  A
O673       Zn679   2.025       .  S
C674        O690   1.273       .  A
C674        O687   1.273       .  A
C674        C893   1.434       .  S
O675        C688   1.276       .  A
O675       Cd682   2.083       .  S
O676        C694   1.273       .  A
O676       Cd685   2.069       .  S
O677        C691   1.273       .  A
O677       Cd681   2.074       .  S
O678        C689   1.272       .  A
O678       Cd681   2.066       .  S
Zn679       O690   2.021       .  S
Zn679       O692   2.035       .  S
Zn679       O684   1.951       .  S
O680        C691   1.273       .  A
O680       Cd685   2.071       .  S
Cd681       O683   2.073       .  S
Cd681       O684   2.005       .  S
Cd682       O686   2.070       .  S
Cd682       O695   2.074       .  S
Cd682       O684   2.003       .  S
O683        C693   1.274       .  A
O684       Cd685   2.004       .  S
Cd685       O687   2.069       .  S
O686        C693   1.273       .  A
C688        O692   1.276       .  A
C688        C849   1.477       .  S
C689        C891   1.434       .  S
C691        C887   1.436       .  S
C693        C896   1.434       .  S
C694        O695   1.274       .  A
C694        C890   1.434       .  S
C696        C699   1.531       .  S
C696        C892   1.469       .  S
C697        C702   1.531       .  S
C697        C889   1.468       .  S
C698        C706   1.381       .  A
C698        C701   1.406       .  A
C699        C710   1.376       .  A
C700        C714   1.382       .  A
C700        C703   1.407       .  A
C701        C704   1.381       .  A
C702        C708   1.376       .  A
C703        C711   1.381       .  A
C704        N705   1.350       .  A
C704        H717   1.083       .  S
N705        C706   1.350       .  A
N705        C894   1.401       .  S
C706        H707   1.083       .  S
C708        H718   1.082       .  S
N709        C885   1.402       .  S
C710        H716   1.082       .  S
C711        N712   1.349       .  A
C711        H713   1.083       .  S
N712        C714   1.350       .  A
N712        C895   1.401       .  S
C714        H715   1.083       .  S
O719        C735   1.273       .  A
O719       Zn725   2.021       .  S
C720        O736   1.274       .  A
C720        O733   1.272       .  A
C720        C879   1.434       .  S
O721       Cd728   2.082       .  S
O722        C740   1.273       .  A
O723        C737   1.273       .  A
O723       Cd727   2.074       .  S
O724        C735   1.273       .  A
O724       Cd727   2.071       .  S
Zn725       O738   2.035       .  S
Zn725       O730   1.951       .  S
O726       Cd731   2.071       .  S
Cd727       O730   2.006       .  S
Cd728       O732   2.073       .  S
O729        C739   1.273       .  A
Cd731       O733   2.065       .  S
O732        C739   1.274       .  A
C734        O738   1.276       .  A
C735        C878   1.435       .  S
C737        C886   1.436       .  S
C739        C881   1.434       .  S
C740        O741   1.273       .  A
C740        C884   1.434       .  S
C742        C744   1.533       .  S
C742        C746   1.534       .  S
C742        C745   1.531       .  S
C742        C880   1.469       .  S
C743        C747   1.532       .  S
C743        C749   1.533       .  S
C743        C748   1.531       .  S
C743        C882   1.468       .  S
C744        C752   1.382       .  A
C744        C747   1.405       .  A
C745        C756   1.376       .  A
C745        C748   1.390       .  A
C746        C760   1.381       .  A
C746        C749   1.407       .  A
C747        C750   1.380       .  A
C748        C754   1.376       .  A
C749        C757   1.382       .  A
C750        N751   1.349       .  A
C750        H763   1.083       .  S
N751        C752   1.350       .  A
N751        C883   1.401       .  S
C752        H753   1.083       .  S
C754        N755   1.357       .  A
C754        H764   1.082       .  S
N755        C756   1.356       .  A
N755        C888   1.402       .  S
C756        H762   1.082       .  S
C757        N758   1.350       .  A
C757        H759   1.083       .  S
N758        C760   1.350       .  A
N758        C877   1.402       .  S
C760        H761   1.083       .  S
O765        C781   1.274       .  A
C766        O782   1.273       .  A
C766        O779   1.273       .  A
C766        C875   1.435       .  S
O767        C780   1.276   1_655  A
O767       Cd774   2.082       .  S
O768        C786   1.273       .  A
O768       Cd777   2.069       .  S
O769       Cd773   2.075       .  S
O770        C781   1.272       .  A
Zn771       O782   2.022   1_455  S
Zn771       O784   2.035       .  S
O772        C783   1.273       .  A
O772       Cd777   2.071       .  S
Cd773       O775   2.074       .  S
Cd774       O787   2.074       .  S
Cd774       O776   2.003       .  S
O775        C785   1.274       .  A
O776       Cd777   2.004       .  S
O778        C785   1.273       .  A
C781        C871   1.434       .  S
C783        C867   1.436       .  S
C785        C869   1.434       .  S
C786        O787   1.274       .  A
C786        C873   1.434       .  S
C788        C790   1.533       .  S
C788        C792   1.534       .  S
C788        C791   1.531       .  S
C788        C872   1.469       .  S
C789        C793   1.532       .  S
C789        C795   1.533       .  S
C789        C794   1.531       .  S
C789        C874   1.468       .  S
C790        C798   1.381       .  A
C790        C793   1.405       .  A
C791        C802   1.376       .  A
C791        C794   1.390       .  A
C792        C806   1.382       .  A
C792        C795   1.407       .  A
C793        C796   1.381       .  A
C794        C800   1.376       .  A
C795        C803   1.381       .  A
C796        N797   1.350       .  A
C796        H809   1.083       .  S
N797        C798   1.350       .  A
N797        C876   1.401       .  S
C798        H799   1.083       .  S
C800        N801   1.356       .  A
C800        H810   1.082       .  S
N801        C802   1.356       .  A
N801        C865   1.402       .  S
C802        H808   1.082       .  S
C803        N804   1.349       .  A
C803        H805   1.083       .  S
N804        C806   1.350       .  A
N804        C870   1.401       .  S
C806        H807   1.083       .  S
C811        C813   1.533       .  S
C811        C814   1.531       .  S
C811        C862   1.469       .  S
C812        C860   1.468       .  S
C814        C825   1.376       .  A
C815        C829   1.381       .  A
C815        C818   1.407       .  A
C816        C819   1.380       .  A
C818        C826   1.382       .  A
C819        N820   1.350       .  A
C819        H832   1.083       .  S
N820        C821   1.351       .  A
N820        C864   1.401       .  S
C823        H833   1.082       .  S
N824        C825   1.356       .  A
N824        C868   1.402       .  S
C825        H831   1.082       .  S
C826        N827   1.350       .  A
C826        H828   1.083       .  S
N827        C829   1.350       .  A
N827        C857   1.402       .  S
C829        H830   1.083       .  S
O834        C850   1.273       .  A
O834       Zn840   2.021       .  S
C835        O851   1.274       .  A
C835        O848   1.272       .  A
C835        C861   1.434       .  S
O836        C849   1.276       .  A
O836       Cd843   2.082       .  S
O837        C855   1.273       .  A
O837       Cd846   2.071       .  S
O838        C852   1.273       .  A
O838       Cd842   2.074       .  S
O839        C850   1.273       .  A
O839       Cd842   2.071       .  S
Zn840       O851   2.026       .  S
Zn840       O853   2.035       .  S
Zn840       O845   1.950       .  S
O841        C852   1.273       .  A
O841       Cd846   2.071       .  S
Cd842       O844   2.069       .  S
Cd842       O845   2.006       .  S
Cd843       O847   2.073       .  S
Cd843       O856   2.070       .  S
Cd843       O845   2.004       .  S
O844        C854   1.273       .  A
O845       Cd846   2.003       .  S
Cd846       O848   2.065       .  S
O847        C854   1.274       .  A
C849        O853   1.276       .  A
C850        C858   1.435       .  S
C852        C866   1.436       .  S
C854        C859   1.434       .  S
C855        O856   1.273       .  A
C855        C863   1.434       .  S
C857        C858   1.206       .  T
C859        C860   1.205       .  T
C861        C862   1.205       .  T
C863        C864   1.205       .  T
C865        C866   1.206       .  T
C867        C868   1.206       .  T
C869        C870   1.205       .  T
C871        C872   1.205       .  T
C873        C874   1.205       .  T
C875        C876   1.206       .  T
C877        C878   1.206       .  T
C879        C880   1.205       .  T
C881        C882   1.205       .  T
C883        C884   1.205       .  T
C885        C886   1.206       .  T
C887        C888   1.206       .  T
C889        C890   1.205       .  T
C891        C892   1.205       .  T
C893        C894   1.206       .  T
C895        C896   1.205       .  T
