geometry optimzed in LAMMPS
_audit_creation_date              2020-11-30 
_audit_creation_method            'lammps2cif' 
_symmetry_space_group_name_H-M    'P1' 
_symmetry_Int_Tables_number       1 
_symmetry_cell_setting            triclinic 
loop_ 
_symmetry_equiv_pos_as_xyz 
  x,y,z 
_cell_length_a                    37.08108577 
_cell_length_b                    30.58910896517252 
_cell_length_c                    23.62530877482147 
_cell_angle_alpha                 85.9695090146818 
_cell_angle_beta                  80.55670791105007 
_cell_angle_gamma                 89.7109173183534 
loop_ 
_atom_site_label 
_atom_site_type_symbol 
_atom_site_fract_x 
_atom_site_fract_y 
_atom_site_fract_z 
_atom_site_charge 
O1          O  0.45677752  0.46083158  0.05728685    -0.75000
O2          O  0.03427413  0.04564767  0.04619352    -0.75000
O3          O  0.45979131  0.04586488  0.04353899    -0.75000
O4          O  0.03037976  0.45647380  0.04842974    -0.75100
O5          O  0.03763005  0.45311398  0.95350525    -0.75000
O6          O  0.47004830  0.04445498  0.94814913    -0.75000
O7          O  0.04226521  0.04797735  0.95043977    -0.75000
O8          O  0.46867527  0.45940615  0.96196020    -0.75000
Ni9        Ni  0.49396233  0.50378170  0.05789734     1.25400
Ni10       Ni  0.00419365  0.00559384  0.95153315     1.25400
C11         C  0.45044292  0.44559686  0.01070872     0.87200
C12         C  0.05101495  0.06066646  0.99694424     0.87200
C13         C  0.45335845  0.06032835  0.99398131     0.87200
C14         C  0.04628690  0.44030352  0.00232834     0.87400
O15         O  0.03335120  0.03953426  0.54157618    -0.75000
O16         O  0.45356396  0.45988017  0.54456854    -0.75000
O17         O  0.02893389  0.45438277  0.55164583    -0.75000
O18         O  0.46045758  0.04563243  0.53233432    -0.75100
O19         O  0.47233896  0.04462013  0.43692241    -0.75000
O20         O  0.03864772  0.45078325  0.45647917    -0.75000
O21         O  0.46725134  0.45830705  0.44946196    -0.75000
O22         O  0.04261750  0.04082514  0.44568079    -0.75000
Ni23       Ni  0.49212350  0.50042907  0.54764638     1.25400
Ni24       Ni  0.00368473  0.99992657  0.44613947     1.25400
C25         C  0.05108945  0.05313348  0.49249782     0.87200
C26         C  0.44740889  0.44555751  0.49734339     0.87200
C27         C  0.04562713  0.43780654  0.50627386     0.87200
C28         C  0.45447068  0.05975831  0.48232740     0.87400
O29         O  0.19157087  0.33624761  0.04241838    -0.81400
O30         O  0.32294593  0.20561214  0.01682400    -0.66100
O31         O  0.25410507  0.29416911  0.98742529    -1.12700
C32         C  0.17871319  0.16960366  0.98097764     1.05500
O33         O  0.31120765  0.17231887  0.94235178    -0.79300
O34         O  0.25544241  0.18919384  0.88464255    -0.66900
Ni35       Ni  0.24385434  0.34108380  0.03645824     1.34900
C36         C  0.24397884  0.22627715  0.86789378     0.84200
O37         O  0.32731874  0.29319574  0.00398111    -0.79900
O38         O  0.29505835  0.35172858  0.03476082    -0.90100
C39         C  0.33142276  0.17754625  0.97985378     0.83800
O40         O  0.24006017  0.30697975  0.10742433    -0.68300
O41         O  0.20811262  0.14735738  0.97338959    -0.87600
C42         C  0.25607858  0.27270949  0.12317849     0.84600
C43         C  0.32524103  0.33215572  0.02008125     1.06200
H44         H  0.24133381  0.19938186  0.04263971     0.38000
O45         O  0.24994103  0.21110937  0.00374999    -1.10300
O46         O  0.22971293  0.25375656  0.90282263    -0.66900
Ni47       Ni  0.21542803  0.25362770  0.98493467     1.26300
O48         O  0.27676353  0.25028903  0.08763616    -0.67200
O49         O  0.17765156  0.21114367  0.98350719    -0.79400
C50         C  0.17229453  0.32784441  0.00467569     0.84000
O51         O  0.18180936  0.29874337  0.96957655    -0.66600
Ni52       Ni  0.25925420  0.16183240  0.95876739     1.27400
Ni53       Ni  0.28908741  0.25118281  0.00441617     1.26100
H54         H  0.26254346  0.30733584  0.94915367     0.38500
O55         O  0.18783931  0.32485446  0.54829866    -0.81400
O56         O  0.32300607  0.20507229  0.51178968    -0.66100
O57         O  0.25013546  0.28900717  0.48611343    -1.12700
C58         C  0.17866938  0.16059452  0.48313597     1.05500
O59         O  0.31106204  0.16933723  0.43932394    -0.79300
O60         O  0.25373953  0.18405958  0.38467054    -0.66900
Ni61       Ni  0.23961635  0.33633467  0.53417947     1.34900
C62         C  0.24015661  0.21997375  0.36838909     0.84200
O63         O  0.32391386  0.29282105  0.49799816    -0.79900
O64         O  0.29048005  0.35204273  0.52375226    -0.90100
C65         C  0.33150656  0.17621442  0.47603845     0.83800
O66         O  0.24243590  0.30556644  0.60603467    -0.68300
O67         O  0.20892008  0.14019401  0.47376908    -0.87600
C68         C  0.25849945  0.27094620  0.62070209     0.84600
C69         C  0.32099112  0.33290327  0.50974826     1.06200
H70         H  0.24197414  0.19410878  0.54190820     0.38000
O71         O  0.24924749  0.20601187  0.50273603    -1.10300
O72         O  0.22465880  0.24662251  0.40374702    -0.66900
Ni73       Ni  0.21245551  0.24649807  0.48643661     1.26300
O74         O  0.27676024  0.24735662  0.58402781    -0.67200
O75         O  0.17604022  0.20195014  0.48724568    -0.79400
C76         C  0.16784681  0.31888516  0.51067061     0.84000
O77         O  0.17657746  0.29022803  0.47443425    -0.66600
Ni78       Ni  0.25945437  0.15686198  0.45776040     1.27400
Ni79       Ni  0.28715305  0.24840017  0.50086942     1.26100
H80         H  0.25722443  0.30200003  0.44742605     0.38500
C81         C  0.23162693  0.28224748  0.72267184    -0.26800
C82         C  0.25530205  0.25824816  0.68365734    -0.14900
C83         C  0.27515093  0.22336306  0.70599776     0.35700
C84         C  0.27100528  0.21349123  0.76584232    -0.26300
C85         C  0.24747454  0.23780660  0.80471005    -0.15500
C86         C  0.22750212  0.27244597  0.78225693     0.36800
N87         N  0.20233019  0.29749036  0.81950342    -0.89800
H88         H  0.21576377  0.30896904  0.70707731     0.17900
H89         H  0.28671230  0.18677988  0.78186298     0.17900
N90         N  0.29991815  0.19806407  0.66848307    -0.88800
H91         H  0.17646147  0.29455894  0.80793129     0.35300
H92         H  0.21031201  0.33042493  0.81251981     0.40400
H93         H  0.29165494  0.16523033  0.67553689     0.40000
H94         H  0.32588612  0.20060508  0.67981349     0.34900
C95         C  0.26205768  0.21704943  0.20425488    -0.26800
C96         C  0.25054182  0.25873995  0.18592405    -0.14900
C97         C  0.23417078  0.28662884  0.22821341     0.35700
C98         C  0.23063330  0.27295466  0.28678924    -0.26300
C99         C  0.24293272  0.23173388  0.30528901    -0.15500
C100        C  0.25823624  0.20322422  0.26300075     0.36800
N101        N  0.26996436  0.16008305  0.27905649    -0.89800
H102        H  0.27414785  0.19478297  0.17284339     0.17900
H103        H  0.21851292  0.29536278  0.31798344     0.17900
N104        N  0.22155406  0.32940005  0.21237125    -0.88800
H105        H  0.29771221  0.15738942  0.26220902     0.35300
H106        H  0.25548532  0.13749643  0.26005629     0.40400
H107        H  0.23541907  0.35244529  0.23161328     0.40000
H108        H  0.19369844  0.33118071  0.22901199     0.34900
C109        C  0.08176980  0.37350219  0.46926965    -0.26800
C110        C  0.07443534  0.40447910  0.51085050    -0.14900
C111        C  0.09664140  0.40528124  0.55378433     0.35700
C112        C  0.12581497  0.37599836  0.55384226    -0.26300
C113        C  0.13405510  0.34575427  0.51129244    -0.15500
C114        C  0.11117005  0.34416735  0.46918668     0.36800
N115        N  0.11793799  0.31356135  0.42556431    -0.89800
H116        H  0.06489506  0.37242217  0.43603084     0.17900
H117        H  0.14278116  0.37809667  0.58678897     0.17900
N118        N  0.09091779  0.43723467  0.59586752    -0.88800
H119        H  0.12205213  0.33121438  0.38547895     0.35300
H120        H  0.09454091  0.29408883  0.42826646     0.40400
H121        H  0.11479489  0.45601761  0.59203915     0.40000
H122        H  0.08660370  0.42065448  0.63665857     0.34900
C123        C  0.38786306  0.41497899  0.54673523    -0.26800
C124        C  0.41618196  0.41487623  0.49922876    -0.14900
C125        C  0.41370384  0.38547903  0.45607865     0.35700
C126        C  0.38316821  0.35769585  0.46130450    -0.26300
C127        C  0.35449657  0.35920012  0.50791185    -0.15500
C128        C  0.35717486  0.38759867  0.55153926     0.36800
N129        N  0.32870720  0.38836079  0.60081093    -0.89800
H130        H  0.38934127  0.43703004  0.58022775     0.17900
H131        H  0.38128803  0.33578379  0.42777240     0.17900
N132        N  0.44164017  0.38265489  0.40684494    -0.88800
H133        H  0.33471455  0.41124927  0.62883335     0.35300
H134        H  0.32806863  0.35762922  0.62335725     0.40400
H135        H  0.46655381  0.37613700  0.42090389     0.40000
H136        H  0.44342037  0.41260262  0.38237151     0.34900
C137        C  0.37813909  0.12579790  0.42860313    -0.26800
C138        C  0.36549100  0.15029685  0.47598091    -0.14900
C139        C  0.38409105  0.14699020  0.52368224     0.35700
C140        C  0.41382487  0.11848666  0.52390677    -0.26300
C141        C  0.42560642  0.09287460  0.47742004    -0.15500
C142        C  0.40777569  0.09721368  0.42889425     0.36800
N143        N  0.41853550  0.07141316  0.38068214    -0.89800
H144        H  0.36441789  0.12790616  0.39138623     0.17900
H145        H  0.42725884  0.11575694  0.56141308     0.17900
N146        N  0.37220231  0.17118397  0.57301913    -0.88800
H147        H  0.42543271  0.09274301  0.34395571     0.35300
H148        H  0.39602899  0.05261803  0.37527170     0.40400
H149        H  0.39403559  0.19064888  0.57958430     0.40000
H150        H  0.36576845  0.14882359  0.60879634     0.34900
C151        C  0.11045115  0.06752859  0.52085385    -0.26800
C152        C  0.08273708  0.08194345  0.49048533    -0.14900
C153        C  0.08578294  0.12332532  0.45960067     0.35700
C154        C  0.11665173  0.14945358  0.45958203    -0.26300
C155        C  0.14498266  0.13438617  0.48853066    -0.15500
C156        C  0.14171941  0.09313954  0.51958708     0.36800
N157        N  0.16993621  0.07738021  0.55041319    -0.89800
H158        H  0.10811437  0.03582953  0.54484042     0.17900
H159        H  0.11903768  0.18106183  0.43542750     0.17900
N160        N  0.05776654  0.13978796  0.42883318    -0.88800
H161        H  0.17917232  0.04749884  0.53469411     0.35300
H162        H  0.15843429  0.07148771  0.59372885     0.40400
H163        H  0.03312113  0.14001591  0.45757926     0.40000
H164        H  0.05496681  0.11857990  0.39701041     0.34900
C165        C  0.09195153  0.38839678  0.95446121    -0.26800
C166        C  0.07598426  0.40761956  0.00496525    -0.14900
C167        C  0.09035896  0.39725423  0.05611059     0.35700
C168        C  0.12080211  0.36986767  0.05513611    -0.26300
C169        C  0.13761746  0.35215973  0.00420343    -0.15500
C170        C  0.12248851  0.36091418  0.95367353     0.36800
N171        N  0.13887727  0.34358574  0.90085605    -0.89800
H172        H  0.08136711  0.39556580  0.91474295     0.17900
H173        H  0.13176716  0.36311737  0.09463034     0.17900
N174        N  0.07492010  0.41520160  0.10906953    -0.88800
H175        H  0.14649513  0.36986441  0.87055785     0.35300
H176        H  0.11909790  0.32510149  0.88617917     0.40400
H177        H  0.09531470  0.43303512  0.12320031     0.40000
H178        H  0.06689890  0.38920809  0.13963563     0.34900
C179        C  0.39096258  0.41478258  0.05930358    -0.26800
C180        C  0.42050767  0.41306131  0.01403938    -0.14900
C181        C  0.42014304  0.38087071  0.97370293     0.35700
C182        C  0.38969540  0.35301436  0.97809027    -0.26300
C183        C  0.35921353  0.35699856  0.02129308    -0.15500
C184        C  0.36048586  0.38735213  0.06314702     0.36800
N185        N  0.33079053  0.39045302  0.10985139    -0.89800
H186        H  0.39089292  0.43855605  0.09124698     0.17900
H187        H  0.38925507  0.32938876  0.94609987     0.17900
N188        N  0.45020073  0.37528234  0.92833870    -0.88800
H189        H  0.32097581  0.42255189  0.10844659     0.35300
H190        H  0.34097892  0.38445779  0.14837277     0.40400
H191        H  0.47398950  0.37057558  0.94636095     0.40000
H192        H  0.45312974  0.40355857  0.90048204     0.34900
C193        C  0.41024446  0.09915869  0.93810268    -0.26800
C194        C  0.42507527  0.09427391  0.98911971    -0.14900
C195        C  0.41107985  0.11999563  0.03494139     0.35700
C196        C  0.38145806  0.14800586  0.03002093    -0.26300
C197        C  0.36507721  0.15084547  0.98022331    -0.15500
C198        C  0.38053814  0.12656144  0.93317001     0.36800
N199        N  0.36690709  0.12857639  0.87969923    -0.89800
H200        H  0.42084802  0.08016396  0.90206101     0.17900
H201        H  0.37059578  0.16664753  0.06627939     0.17900
N202        N  0.42669777  0.11785165  0.08663674    -0.88800
H203        H  0.36674920  0.16126602  0.86352141     0.35300
H204        H  0.34044096  0.11553853  0.88651557     0.40400
H205        H  0.40612448  0.10844601  0.12110346     0.40000
H206        H  0.43558929  0.14931697  0.09267267     0.34900
C207        C  0.10347624  0.08780941  0.03757489    -0.26800
C208        C  0.08168746  0.09187889  0.99419673    -0.14900
C209        C  0.09038614  0.12439664  0.94841578     0.35700
C210        C  0.12156548  0.15094636  0.94597399    -0.26300
C211        C  0.14408806  0.14521872  0.98802912    -0.15500
C212        C  0.13473053  0.11399776  0.03474185     0.36800
N213        N  0.15738323  0.10867301  0.07863381    -0.89800
H214        H  0.09679099  0.06309300  0.07288628     0.17900
H215        H  0.12895778  0.17525782  0.91034911     0.17900
N216        N  0.06769871  0.13023952  0.90465122    -0.88800
H217        H  0.14689622  0.08402430  0.10981884     0.35300
H218        H  0.15628593  0.13782929  0.09944016     0.40400
H219        H  0.07811224  0.15524492  0.87394515     0.40000
H220        H  0.04207312  0.14065669  0.92432798     0.33900
O221        O  0.45516993  0.95730995  0.05367825    -0.75000
O222        O  0.03277979  0.54492376  0.03580390    -0.75000
O223        O  0.45927015  0.54950407  0.04897214    -0.75000
O224        O  0.02992145  0.95744723  0.05158275    -0.75100
O225        O  0.03880105  0.95921173  0.95602126    -0.75000
O226        O  0.46986947  0.54827767  0.95362625    -0.75000
O227        O  0.04054858  0.54144759  0.94067098    -0.75000
O228        O  0.46518087  0.95608886  0.95824720    -0.75000
Ni229      Ni  0.49361610  0.99926051  0.05225355     1.25400
Ni230      Ni  0.00254195  0.49857129  0.94605081     1.25400
C231        C  0.44741148  0.94282650  0.00746924     0.87200
C232        C  0.04953126  0.55701278  0.98535533     0.87200
C233        C  0.45257107  0.56363925  0.99941507     0.87200
C234        C  0.04611417  0.94320912  0.00442272     0.87400
O235        O  0.03451738  0.54225526  0.53780179    -0.75000
O236        O  0.45569691  0.95772197  0.54080906    -0.75000
O237        O  0.02638619  0.95185950  0.54930101    -0.75000
O238        O  0.45974495  0.54824755  0.53637762    -0.75100
O239        O  0.47252103  0.54689736  0.44111962    -0.75000
O240        O  0.03703373  0.95224496  0.45369659    -0.75000
O241        O  0.46839345  0.95625820  0.44548896    -0.75000
O242        O  0.04382418  0.53924821  0.44233769    -0.75000
Ni243      Ni  0.49384334  0.99880106  0.54275555     1.25400
Ni244      Ni  0.00503072  0.49740173  0.44607578     1.25400
C245        C  0.05228851  0.55382002  0.48795995     0.87200
C246        C  0.44878691  0.94388803  0.49384392     0.87200
C247        C  0.04345773  0.93701425  0.50302162     0.87200
C248        C  0.45476617  0.56290418  0.48606535     0.87400
O249        O  0.18680888  0.83193035  0.04206742    -0.81400
O250        O  0.31981921  0.70682193  0.01595194    -0.66100
O251        O  0.24959835  0.79280492  0.98445162    -1.12700
C252        C  0.17602349  0.66792952  0.97429675     1.05500
O253        O  0.30947207  0.66971435  0.94351593    -0.79300
O254        O  0.25688221  0.69128312  0.88156220    -0.66900
Ni255      Ni  0.23883466  0.84059599  0.03210342     1.34900
C256        C  0.24203858  0.72652724  0.86586904     0.84200
O257        O  0.32244725  0.79428439  0.00140022    -0.79900
O258        O  0.28980637  0.85407195  0.02674643    -0.90100
C259        C  0.32911231  0.67767555  0.98085923     0.83800
O260        O  0.23835620  0.80949712  0.10455224    -0.68300
O261        O  0.20609190  0.64747940  0.96233909    -0.87600
C262        C  0.25429226  0.77514239  0.12016039     0.84600
C263        C  0.32002433  0.83399791  0.01470954     1.06200
H264        H  0.23887513  0.69726931  0.04042288     0.38000
O265        O  0.24692829  0.70956219  0.00162570    -1.10300
O266        O  0.22413945  0.75107954  0.90156386    -0.66900
Ni267      Ni  0.21137002  0.75130534  0.98389905     1.26300
O268        O  0.27294528  0.75110121  0.08446401    -0.67200
O269        O  0.17399905  0.70824745  0.98472676    -0.79400
C270        C  0.16747901  0.82429245  0.00417147     0.84000
O271        O  0.17695170  0.79545702  0.96885919    -0.66600
Ni272      Ni  0.25725000  0.66115134  0.95478035     1.27400
Ni273      Ni  0.28523531  0.75105929  0.00185754     1.26100
H274        H  0.25761633  0.80542967  0.94577937     0.38500
O275        O  0.18582680  0.82540117  0.54506794    -0.81400
O276        O  0.32282728  0.70854305  0.51286212    -0.66100
O277        O  0.24939973  0.79109270  0.48429596    -1.12700
C278        C  0.18052593  0.66186213  0.47461770     1.05500
O279        O  0.31349358  0.67304587  0.43872540    -0.79300
O280        O  0.25842347  0.68939475  0.38038848    -0.66900
Ni281      Ni  0.23748546  0.83814323  0.53251320     1.34900
C282        C  0.24320987  0.72426824  0.36456713     0.84200
O283        O  0.32230915  0.79603924  0.49983633    -0.79900
O284        O  0.28817131  0.85514753  0.52333557    -0.90100
C285        C  0.33291837  0.68046739  0.47663032     0.83800
O286        O  0.23994262  0.80750638  0.60467405    -0.68300
O287        O  0.21137636  0.64283268  0.46403542    -0.87600
C288        C  0.25583918  0.77279822  0.61949171     0.84600
C289        C  0.31896966  0.83627893  0.51052079     1.06200
H290        H  0.24198356  0.69528608  0.53830256     0.38000
O291        O  0.24964857  0.70799446  0.49960960    -1.10300
O292        O  0.22553353  0.74920531  0.40014431    -0.66900
Ni293      Ni  0.21252410  0.74796545  0.48272651     1.26300
O294        O  0.27445598  0.74938132  0.58308848    -0.67200
O295        O  0.17692830  0.70277137  0.48172670    -0.79400
C296        C  0.16639074  0.81899476  0.50676413     0.84000
O297        O  0.17625631  0.79099773  0.47009929    -0.66600
Ni298      Ni  0.26183102  0.66014117  0.45294335     1.27400
Ni299      Ni  0.28655890  0.75108138  0.50032373     1.26100
H300        H  0.25695924  0.80431609  0.44583722     0.38500
C301        C  0.23620151  0.78925679  0.72198747    -0.26800
C302        C  0.25255104  0.75989950  0.68226549    -0.14900
C303        C  0.26534096  0.71942424  0.70364419     0.35700
C304        C  0.26184249  0.70952879  0.76327904    -0.26300
C305        C  0.24554677  0.73899869  0.80296876    -0.15500
C306        C  0.23257790  0.77934332  0.78150159     0.36800
N307        N  0.21578367  0.81072506  0.81963352    -0.89800
H308        H  0.22617062  0.82058455  0.70701317     0.17900
H309        H  0.27181944  0.67820452  0.77837984     0.17900
N310        N  0.28162563  0.68790102  0.66531759    -0.88800
H311        H  0.18945592  0.81681432  0.81067481     0.35300
H312        H  0.23080156  0.83994437  0.81080848     0.40400
H313        H  0.26635374  0.65887571  0.67435493     0.40000
H314        H  0.30796916  0.68142585  0.67394314     0.34900
C315        C  0.26223700  0.72064868  0.20078387    -0.26800
C316        C  0.25120025  0.76261145  0.18283161    -0.14900
C317        C  0.23780906  0.79184558  0.22512938     0.35700
C318        C  0.23544100  0.77853024  0.28361285    -0.26300
C319        C  0.24619664  0.73644848  0.30172240    -0.15500
C320        C  0.25963241  0.70702300  0.25938441     0.36800
N321        N  0.27021360  0.66319466  0.27555820    -0.89800
H322        H  0.27244466  0.69786279  0.16890906     0.17900
H323        H  0.22529509  0.80170316  0.31502641     0.17900
N324        N  0.22705220  0.83547043  0.20928174    -0.88800
H325        H  0.28086954  0.64667123  0.23929120     0.35300
H326        H  0.24649054  0.64616835  0.29492017     0.40400
H327        H  0.24297234  0.85748385  0.22668040     0.40000
H328        H  0.19973954  0.83948918  0.22782407     0.34900
C329        C  0.08134618  0.87479309  0.46237746    -0.26800
C330        C  0.07220538  0.90332522  0.50663912    -0.14900
C331        C  0.09237468  0.90124156  0.55239706     0.35700
C332        C  0.12162108  0.87216903  0.55226297    -0.26300
C333        C  0.13191533  0.84463878  0.50712631    -0.15500
C334        C  0.11062949  0.84502801  0.46244888     0.36800
N335        N  0.11914490  0.81619027  0.41669289    -0.89800
H336        H  0.06571389  0.87591011  0.42738078     0.17900
H337        H  0.13705965  0.87232546  0.58741299     0.17900
N338        N  0.08451966  0.93012593  0.59799916    -0.88800
H339        H  0.10174339  0.82186912  0.38635920     0.35300
H340        H  0.11371925  0.78417427  0.43454689     0.40400
H341        H  0.10793376  0.94887838  0.59864114     0.40000
H342        H  0.07885347  0.91103568  0.63692606     0.34900
C343        C  0.38620763  0.92166964  0.53966430    -0.26800
C344        C  0.41639836  0.91510696  0.49673740    -0.14900
C345        C  0.41466886  0.88138120  0.45922236     0.35700
C346        C  0.38303895  0.85541149  0.46537004    -0.26300
C347        C  0.35259701  0.86278987  0.50748890    -0.15500
C348        C  0.35442751  0.89596432  0.54554468     0.36800
N349        N  0.32423938  0.90307918  0.59053547    -0.89800
H350        H  0.38726732  0.94735217  0.56871316     0.17900
H351        H  0.38197041  0.82984449  0.43615466     0.17900
N352        N  0.44467214  0.87206955  0.41540865    -0.88800
H353        H  0.32991060  0.92894640  0.61446245     0.35300
H354        H  0.32127150  0.87496644  0.61879871     0.40400
H355        H  0.46787392  0.86619134  0.43460665     0.40000
H356        H  0.44950188  0.89935570  0.38598151     0.34900
C357        C  0.38188059  0.63315563  0.42889771    -0.26800
C358        C  0.36757367  0.65588077  0.47718672    -0.14900
C359        C  0.38497789  0.65152331  0.52613237     0.35700
C360        C  0.41432543  0.62239185  0.52730187    -0.26300
C361        C  0.42711911  0.59761495  0.48022203    -0.15500
C362        C  0.41132301  0.60436767  0.42984000     0.36800
N363        N  0.42392160  0.58079900  0.38013470    -0.89800
H364        H  0.36946372  0.63663071  0.39038502     0.17900
H365        H  0.42651744  0.61837323  0.56599074     0.17900
N366        N  0.37222032  0.67521656  0.57563168    -0.88800
H367        H  0.43206659  0.60360762  0.34535043     0.35300
H368        H  0.40197962  0.56268989  0.37105445     0.40400
H369        H  0.39391049  0.69421178  0.58380889     0.40000
H370        H  0.36494600  0.65252121  0.61081867     0.34900
C371        C  0.11516417  0.56493997  0.50392575    -0.26800
C372        C  0.08434170  0.58234084  0.48378621    -0.14900
C373        C  0.08465223  0.62630914  0.46138694     0.35700
C374        C  0.11599451  0.65214756  0.45953859    -0.26300
C375        C  0.14728960  0.63451469  0.47886806    -0.15500
C376        C  0.14665583  0.59043975  0.50137105     0.36800
N377        N  0.17764466  0.57163733  0.52288067    -0.89800
H378        H  0.11484863  0.53120310  0.52152665     0.17900
H379        H  0.11608804  0.68589665  0.44213216     0.17900
N380        N  0.05338728  0.64551676  0.44120989    -0.88800
H381        H  0.18585911  0.54426410  0.49998436     0.35300
H382        H  0.16938132  0.56088090  0.56604240     0.40400
H383        H  0.03122286  0.64279541  0.47492705     0.40000
H384        H  0.04726714  0.62758345  0.40789128     0.34900
C385        C  0.08862798  0.88870523  0.95513623    -0.26800
C386        C  0.07432904  0.90869871  0.00586749    -0.14900
C387        C  0.08855259  0.89680861  0.05666052     0.35700
C388        C  0.11744579  0.86729001  0.05517160    -0.26300
C389        C  0.13306665  0.84907017  0.00403027    -0.15500
C390        C  0.11768343  0.85872880  0.95371409     0.36800
N391        N  0.13253335  0.83987981  0.90088577    -0.89800
H392        H  0.07758349  0.89704420  0.91609258     0.17900
H393        H  0.12848069  0.85964235  0.09442567     0.17900
N394        N  0.07481165  0.91566970  0.10973249    -0.88800
H395        H  0.11938975  0.85235079  0.86734586     0.35300
H396        H  0.12660364  0.80632330  0.90628896     0.40400
H397        H  0.09638887  0.93178696  0.12318432     0.40000
H398        H  0.06571065  0.89022473  0.14059035     0.34900
C399        C  0.38649531  0.91527010  0.05503623    -0.26800
C400        C  0.41658385  0.91169759  0.01108914    -0.14900
C401        C  0.41594786  0.87920116  0.97127559     0.35700
C402        C  0.38475959  0.85298041  0.97451141    -0.26300
C403        C  0.35387620  0.85869957  0.01619092    -0.15500
C404        C  0.35526768  0.88915630  0.05789766     0.36800
N405        N  0.32515247  0.89330138  0.10367342    -0.89800
H406        H  0.38674387  0.93928830  0.08659280     0.17900
H407        H  0.38424738  0.82896682  0.94302421     0.17900
N408        N  0.44660728  0.87141920  0.92780744    -0.88800
H409        H  0.31622948  0.92576973  0.10188287     0.35300
H410        H  0.33463893  0.88680384  0.14270405     0.40400
H411        H  0.46966771  0.86594000  0.94748858     0.40000
H412        H  0.45107114  0.89897016  0.89880783     0.34900
C413        C  0.41199756  0.60514433  0.94094646    -0.26800
C414        C  0.42359444  0.59688303  0.99437156    -0.14900
C415        C  0.40613279  0.61906316  0.04176815     0.35700
C416        C  0.37634299  0.64656568  0.03565883    -0.26300
C417        C  0.36328229  0.65248150  0.98308455    -0.15500
C418        C  0.38229786  0.63230312  0.93473968     0.36800
N419        N  0.37260163  0.63891083  0.87849168    -0.89800
H420        H  0.42539976  0.58934290  0.90356430     0.17900
H421        H  0.36262944  0.66222230  0.07297041     0.17900
N422        N  0.41827624  0.61374615  0.09633061    -0.88800
H423        H  0.37183813  0.67257067  0.86745151     0.35300
H424        H  0.34695763  0.62491139  0.87865735     0.40400
H425        H  0.39634413  0.60176550  0.12700801     0.40000
H426        H  0.42545086  0.64463494  0.10747865     0.34900
C427        C  0.08062953  0.61958768  0.01986298    -0.26800
C428        C  0.08036796  0.58835547  0.97904216    -0.14900
C429        C  0.11068990  0.58565332  0.93485828     0.35700
C430        C  0.14116982  0.61266009  0.93366036    -0.26300
C431        C  0.14196062  0.64293755  0.97534703    -0.15500
C432        C  0.11108584  0.64716723  0.01830310     0.36800
N433        N  0.11119926  0.67829300  0.06113406    -0.89800
H434        H  0.05724005  0.62197575  0.05362606     0.17900
H435        H  0.16462796  0.60953512  0.90017979     0.17900
N436        N  0.11136423  0.55430154  0.89240969    -0.88800
H437        H  0.13119409  0.66859096  0.08581846     0.35300
H438        H  0.08626110  0.67745072  0.08925466     0.40400
H439        H  0.13376788  0.53374580  0.89472106     0.40000
H440        H  0.11535495  0.57126582  0.85185777     0.33900
O441        O  0.95673287  0.45852678  0.05325371    -0.75000
O442        O  0.53277930  0.04115360  0.04400883    -0.75000
O443        O  0.96116096  0.05035488  0.04949271    -0.75000
O444        O  0.52924927  0.45814323  0.05984702    -0.75100
O445        O  0.54132479  0.45875140  0.96434530    -0.75000
O446        O  0.96913014  0.05174218  0.95397519    -0.75000
O447        O  0.54300769  0.03905479  0.94857313    -0.75000
O448        O  0.96401002  0.45575388  0.95815238    -0.75000
Ni449      Ni  0.99458479  0.50173739  0.04787221     1.25400
Ni450      Ni  0.50431079  0.99766895  0.95006184     1.25400
C451        C  0.94753580  0.44315837  0.00855251     0.87200
C452        C  0.55108489  0.05332925  0.99463741     0.87200
C453        C  0.95345726  0.06623118  0.00139874     0.87200
C454        C  0.54711143  0.44358683  0.01398815     0.87400
O455        O  0.53279949  0.03986363  0.53882827    -0.75000
O456        O  0.95561828  0.46024914  0.55169300    -0.75000
O457        O  0.52545795  0.45276900  0.55194575    -0.75000
O458        O  0.96072790  0.04815029  0.54100251    -0.75100
O459        O  0.96979188  0.04759802  0.44561382    -0.75000
O460        O  0.53945858  0.45270580  0.45666505    -0.75000
O461        O  0.96549227  0.45600154  0.45676392    -0.75000
O462        O  0.54495277  0.04138037  0.44300209    -0.75000
Ni463      Ni  0.99477375  0.50145675  0.54797440     1.25400
Ni464      Ni  0.50723433  0.99873721  0.44047039     1.25400
C465        C  0.55177824  0.05382131  0.49093071     0.87200
C466        C  0.94727918  0.44476496  0.50648811     0.87200
C467        C  0.54389519  0.43749784  0.50699312     0.87200
C468        C  0.95400767  0.06359615  0.49198693     0.87400
O469        O  0.68564220  0.32903532  0.06100712    -0.81400
O470        O  0.81916076  0.20617389  0.03234356    -0.66100
O471        O  0.74854134  0.29149788  0.00247184    -1.12700
C472        C  0.67688217  0.16564158  0.98742474     1.05500
O473        O  0.81010719  0.17160209  0.95704379    -0.79300
O474        O  0.75754169  0.19270931  0.89593536    -0.66900
Ni475      Ni  0.73762910  0.33899036  0.05045106     1.34900
C476        C  0.74243226  0.22800668  0.88128914     0.84200
O477        O  0.82120163  0.29339543  0.01987279    -0.79900
O478        O  0.78866426  0.35359913  0.04353942    -0.90100
C479        C  0.82947944  0.17917992  0.99482566     0.83800
O480        O  0.73818829  0.30783001  0.12274539    -0.68300
O481        O  0.70740418  0.14619853  0.97503842    -0.87600
C482        C  0.75307553  0.27257984  0.13805073     0.84600
C483        C  0.81890182  0.33352333  0.03122741     1.06200
H484        H  0.73861555  0.19490089  0.05530835     0.38000
O485        O  0.74670094  0.20814240  0.01700111    -1.10300
O486        O  0.72395638  0.25152000  0.91771341    -0.66900
Ni487      Ni  0.71078064  0.24961235  0.00024609     1.26300
O488        O  0.77141868  0.24846986  0.10207205    -0.67200
O489        O  0.67406348  0.20580487  0.99891568    -0.79400
C490        C  0.66662166  0.32241786  0.02226006     0.84000
O491        O  0.67599359  0.29365219  0.98672756    -0.66600
Ni492      Ni  0.75821119  0.16123611  0.96805674     1.27400
Ni493      Ni  0.78434299  0.24999307  0.01926034     1.26100
H494        H  0.75672110  0.30453056  0.96404690     0.38500
O495        O  0.68440895  0.32843008  0.55804333    -0.81400
O496        O  0.82173016  0.20906894  0.52849943    -0.66100
O497        O  0.74808225  0.29144230  0.50051348    -1.12700
C498        C  0.67830023  0.16171625  0.49481426     1.05500
O499        O  0.81112046  0.17195185  0.45622937    -0.79300
O500        O  0.75504652  0.18637357  0.39929205    -0.66900
Ni501      Ni  0.73642960  0.33883308  0.54841872     1.34900
C502        C  0.74161338  0.22232578  0.38281532     0.84200
O503        O  0.82125230  0.29640117  0.51293154    -0.79900
O504        O  0.78737784  0.35431494  0.54239376    -0.90100
C505        C  0.83129012  0.18055267  0.49264764     0.83800
O506        O  0.73693588  0.30727003  0.62044855    -0.68300
O507        O  0.70883809  0.14175376  0.48674267    -0.87600
C508        C  0.75495655  0.27432071  0.63533704     0.84600
C509        C  0.81806390  0.33587101  0.52693126     1.06200
H510        H  0.74060656  0.19660495  0.55725768     0.38000
O511        O  0.74808239  0.20829792  0.51804166    -1.10300
O512        O  0.72495047  0.24834738  0.41776826    -0.66900
Ni513      Ni  0.71122457  0.24808485  0.49989306     1.26300
O514        O  0.77471658  0.25184358  0.59896437    -0.67200
O515        O  0.67536019  0.20299255  0.49935226    -0.79400
C516        C  0.66546689  0.31999385  0.51978795     0.84000
O517        O  0.67548157  0.29074381  0.48510235    -0.66600
Ni518      Ni  0.75940786  0.15914838  0.47300154     1.27400
Ni519      Ni  0.78531836  0.25150238  0.51618089     1.26100
H520        H  0.75544305  0.30454299  0.46193834     0.38500
C521        C  0.72876339  0.28550657  0.73762228    -0.26800
C522        C  0.75276112  0.26228712  0.69811900    -0.14900
C523        C  0.77438901  0.22895530  0.71975226     0.35700
C524        C  0.77093579  0.21897172  0.77930452    -0.26300
C525        C  0.74635557  0.24160053  0.81870514    -0.15500
C526        C  0.72541701  0.27565315  0.79712481     0.36800
N527        N  0.70013748  0.30002772  0.83509000    -0.89800
H528        H  0.71203279  0.31152060  0.72248598     0.17900
H529        H  0.78771765  0.19306291  0.79458433     0.17900
N530        N  0.80012211  0.20513157  0.68178343    -0.88800
H531        H  0.67415437  0.29640653  0.82420849     0.35300
H532        H  0.70748165  0.33316394  0.82806593     0.40400
H533        H  0.79334599  0.17183454  0.68881764     0.40000
H534        H  0.82604328  0.20943999  0.69260972     0.34900
C535        C  0.77238297  0.22690290  0.21989842    -0.26800
C536        C  0.74939163  0.25945566  0.20077748    -0.14900
C537        C  0.72404168  0.27972757  0.24228462     0.35700
C538        C  0.72213041  0.26707936  0.30090697    -0.26300
C539        C  0.74505544  0.23453499  0.32000315    -0.15500
C540        C  0.77069841  0.21459335  0.27870832     0.36800
N541        N  0.79579051  0.18257486  0.29606508    -0.89800
H542        H  0.79240622  0.21131190  0.18915810     0.17900
H543        H  0.70221486  0.28284931  0.33163840     0.17900
N544        N  0.69980433  0.31301952  0.22548932    -0.88800
H545        H  0.82236664  0.19405924  0.28081553     0.35300
H546        H  0.79207955  0.15374875  0.27636050     0.40400
H547        H  0.70442688  0.34140215  0.24554738     0.40000
H548        H  0.67294148  0.30256406  0.24070114     0.34900
C549        C  0.58555962  0.37902038  0.46557587    -0.26800
C550        C  0.57168815  0.40301348  0.51300484    -0.14900
C551        C  0.58652953  0.39572680  0.56419666     0.35700
C552        C  0.61575296  0.36679377  0.56600477    -0.26300
C553        C  0.63100885  0.34465725  0.51769293    -0.15500
C554        C  0.61488193  0.34989519  0.46752285     0.36800
N555        N  0.62897637  0.32717343  0.41768821    -0.89800
H556        H  0.57424028  0.38364562  0.42612218     0.17900
H557        H  0.62729527  0.36276700  0.60531247     0.17900
N558        N  0.57323341  0.41897412  0.61392680    -0.88800
H559        H  0.63708806  0.35044308  0.38343717     0.35300
H560        H  0.60776150  0.30844796  0.40737807     0.40400
H561        H  0.59495537  0.43689138  0.62410682     0.40000
H562        H  0.56454753  0.39597772  0.64827399     0.34900
C563        C  0.88718471  0.41769598  0.55949325    -0.26800
C564        C  0.91534366  0.41476981  0.51213016    -0.14900
C565        C  0.91184244  0.38381331  0.47138090     0.35700
C566        C  0.88041700  0.35765927  0.47820876    -0.26300
C567        C  0.85176972  0.36198354  0.52415353    -0.15500
C568        C  0.85545528  0.39167487  0.56594433     0.36800
N569        N  0.82715796  0.39500992  0.61495525    -0.89800
H570        H  0.88960186  0.44095329  0.59123169     0.17900
H571        H  0.87793656  0.33455654  0.44628086     0.17900
N572        N  0.93973411  0.37756982  0.42303211    -0.88800
H573        H  0.83408225  0.41845651  0.64155169     0.35300
H574        H  0.82555243  0.36490563  0.63915239     0.40400
H575        H  0.96441766  0.37102539  0.43782493     0.40000
H576        H  0.94239371  0.40610270  0.39563689     0.34900
C577        C  0.88432256  0.14218792  0.43972879    -0.26800
C578        C  0.86631266  0.15689308  0.49186893    -0.14900
C579        C  0.88017008  0.14504714  0.54280551     0.35700
C580        C  0.90991451  0.11634216  0.54138146    -0.26300
C581        C  0.92647367  0.09910113  0.48976723    -0.15500
C582        C  0.91434918  0.11392793  0.43805928     0.36800
N583        N  0.93165225  0.09966410  0.38379520    -0.89800
H584        H  0.87446524  0.15181009  0.39997147     0.17900
H585        H  0.91911445  0.10630526  0.58151258     0.17900
N586        N  0.86297075  0.16011001  0.59663499    -0.88800
H587        H  0.94099595  0.12740325  0.35711172     0.35300
H588        H  0.91197560  0.08405761  0.36513662     0.40400
H589        H  0.88258671  0.17681253  0.61413475     0.40000
H590        H  0.85428342  0.13273656  0.62447587     0.34900
C591        C  0.61067703  0.06687708  0.52229195    -0.26800
C592        C  0.58319574  0.08270211  0.49219116    -0.14900
C593        C  0.58578776  0.12575196  0.46621085     0.35700
C594        C  0.61633545  0.15171255  0.46943779    -0.26300
C595        C  0.64467087  0.13525804  0.49760416    -0.15500
C596        C  0.64146146  0.09261721  0.52521807     0.36800
N597        N  0.66932830  0.07574761  0.55641682    -0.89800
H598        H  0.60822988  0.03404717  0.54313340     0.17900
H599        H  0.61842679  0.18447697  0.44844364     0.17900
N600        N  0.55755140  0.14405187  0.43730313    -0.88800
H601        H  0.66288339  0.04382953  0.57385367     0.35300
H602        H  0.66956335  0.09505763  0.59116058     0.40400
H603        H  0.53298621  0.14259099  0.46635053     0.40000
H604        H  0.55477064  0.12482493  0.40340203     0.34900
C605        C  0.58861707  0.38639461  0.96951940    -0.26800
C606        C  0.57521950  0.40931600  0.01810703    -0.14900
C607        C  0.58991126  0.40016330  0.06906619     0.35700
C608        C  0.61829511  0.37000139  0.06981579    -0.26300
C609        C  0.63289534  0.34850120  0.02064305    -0.15500
C610        C  0.61706851  0.35583793  0.97027091     0.36800
N611        N  0.63070332  0.33378204  0.91942378    -0.89800
H612        H  0.57713311  0.39265127  0.93043936     0.17900
H613        H  0.62968057  0.36439993  0.10910715     0.17900
N614        N  0.57720118  0.42252341  0.11979252    -0.88800
H615        H  0.61752718  0.34493613  0.88531353     0.35300
H616        H  0.62377755  0.30062240  0.92811013     0.40400
H617        H  0.59935761  0.43916378  0.13074782     0.40000
H618        H  0.56794508  0.39903098  0.15327259     0.34900
C619        C  0.88782335  0.41608276  0.06211537    -0.26800
C620        C  0.91632365  0.41205315  0.01563454    -0.14900
C621        C  0.91361118  0.37939379  0.97680659     0.35700
C622        C  0.88234478  0.35280749  0.98435495    -0.26300
C623        C  0.85308181  0.35866593  0.02891184    -0.15500
C624        C  0.85619523  0.38990809  0.06905277     0.36800
N625        N  0.82721946  0.39496048  0.11663920    -0.89800
H626        H  0.88973893  0.44066072  0.09238016     0.17900
H627        H  0.88030975  0.32852102  0.95372823     0.17900
N628        N  0.94209236  0.37206495  0.92967500    -0.88800
H629        H  0.83371599  0.41950664  0.14200383     0.35300
H630        H  0.82512450  0.36568852  0.14266813     0.40400
H631        H  0.96657825  0.36683248  0.94557890     0.40000
H632        H  0.94479549  0.39975877  0.90078479     0.34900
C633        C  0.91564740  0.11525736  0.94694077    -0.26800
C634        C  0.92506378  0.10044222  0.00020066    -0.14900
C635        C  0.90549038  0.11652216  0.05096630     0.35700
C636        C  0.87554223  0.14415360  0.04769758    -0.26300
C637        C  0.86436994  0.15581311  0.99481480    -0.15500
C638        C  0.88560717  0.14235083  0.94364571     0.36800
N639        N  0.87769301  0.15574661  0.88763519    -0.89800
H640        H  0.93086881  0.10446750  0.90726441     0.17900
H641        H  0.85993071  0.15482871  0.08717536     0.17900
N642        N  0.91517972  0.10423157  0.10612596    -0.88800
H643        H  0.87581134  0.18991402  0.88392498     0.35300
H644        H  0.85290244  0.14182347  0.88243270     0.40400
H645        H  0.89254184  0.08887761  0.13196729     0.40000
H646        H  0.92089148  0.13281089  0.12491153     0.34900
C647        C  0.58115335  0.11683389  0.02909660    -0.26800
C648        C  0.58249449  0.08352922  0.99081313    -0.14900
C649        C  0.61443981  0.07850594  0.95040845     0.35700
C650        C  0.64447716  0.10626114  0.94941935    -0.26300
C651        C  0.64336848  0.13941725  0.98788789    -0.15500
C652        C  0.61116405  0.14503083  0.02761623     0.36800
N653        N  0.60920683  0.17827356  0.06775461    -0.89800
H654        H  0.55672544  0.12098227  0.06036030     0.17900
H655        H  0.66899646  0.10152932  0.91856005     0.17900
N656        N  0.61705623  0.04417998  0.91168809    -0.88800
H657        H  0.60364047  0.16305294  0.10930451     0.35300
H658        H  0.58725667  0.19871966  0.06182524     0.40400
H659        H  0.63906548  0.02420712  0.91883105     0.40000
H660        H  0.62281346  0.05847504  0.86965649     0.33900
O661        O  0.95680465  0.96210664  0.05497497    -0.75000
O662        O  0.53231266  0.54628539  0.05201593    -0.75000
O663        O  0.95959218  0.54695524  0.04053552    -0.75000
O664        O  0.52817311  0.95253214  0.05396012    -0.75100
O665        O  0.53773629  0.95099810  0.95865886    -0.75000
O666        O  0.96718160  0.54456432  0.94545647    -0.75000
O667        O  0.54271717  0.54759351  0.95614716    -0.75000
O668        O  0.96538481  0.96327105  0.95949597    -0.75000
Ni669      Ni  0.99526926  0.00381664  0.05391504     1.25400
Ni670      Ni  0.50603096  0.50357621  0.95558495     1.25400
C671        C  0.94810698  0.94891665  0.00868069     0.87200
C672        C  0.55028969  0.56048808  0.00331616     0.87200
C673        C  0.95189396  0.56118024  0.99171371     0.87200
C674        C  0.54452887  0.93654659  0.00797299     0.87400
O675        O  0.53180279  0.54068949  0.54427415    -0.75000
O676        O  0.95352881  0.96014796  0.54893127    -0.75000
O677        O  0.52817397  0.95198229  0.54578531    -0.75000
O678        O  0.96155331  0.54846597  0.53718162    -0.75100
O679        O  0.97083222  0.54419400  0.44224051    -0.75000
O680        O  0.54127596  0.95272127  0.45039971    -0.75000
O681        O  0.96396852  0.95915646  0.45341219    -0.75000
O682        O  0.54459980  0.54129569  0.44858239    -0.75000
Ni683      Ni  0.99311121  0.99987845  0.54856420     1.25400
Ni684      Ni  0.50643555  0.49981463  0.44553143     1.25400
C685        C  0.55121103  0.55405393  0.49638018     0.87200
C686        C  0.94551023  0.94661128  0.50243822     0.87200
C687        C  0.54658403  0.93748090  0.50025244     0.87200
C688        C  0.95463199  0.56148250  0.48730558     0.87400
O689        O  0.68768882  0.83296237  0.05171268    -0.81400
O690        O  0.82363969  0.70956943  0.01991237    -0.66100
O691        O  0.75145640  0.79476441  0.99525148    -1.12700
C692        C  0.67991002  0.66656716  0.98809990     1.05500
O693        O  0.81185139  0.67655896  0.94519270    -0.79300
O694        O  0.75447402  0.68951508  0.89067174    -0.66900
Ni695      Ni  0.73989029  0.84050199  0.04589121     1.34900
C696        C  0.74328094  0.72684286  0.87442050     0.84200
O697        O  0.82452827  0.79730998  0.00873386    -0.79900
O698        O  0.79097087  0.85371450  0.04400662    -0.90100
C699        C  0.83240528  0.68225136  0.98203126     0.83800
O700        O  0.73743301  0.80522595  0.11570655    -0.68300
O701        O  0.70996416  0.64550932  0.98090173    -0.87600
C702        C  0.75489235  0.77170432  0.13005403     0.84600
C703        C  0.82153568  0.83584034  0.02610987     1.06200
H704        H  0.74208019  0.69935660  0.04873569     0.38000
O705        O  0.75011251  0.71145929  0.00984945    -1.10300
O706        O  0.72906944  0.75393996  0.90987522    -0.66900
Ni707      Ni  0.71433369  0.75236264  0.99196036     1.26300
O708        O  0.77668618  0.75133596  0.09348061    -0.67200
O709        O  0.67793438  0.70819875  0.98952990    -0.79400
C710        C  0.66914175  0.82422369  0.01309897     0.84000
O711        O  0.67961766  0.79589985  0.97737976    -0.66600
Ni712      Ni  0.76051272  0.66277454  0.96408733     1.27400
Ni713      Ni  0.78794563  0.75342016  0.01001076     1.26100
H714        H  0.75922098  0.80886364  0.95730357     0.38500
O715        O  0.68518824  0.82394864  0.55207455    -0.81400
O716        O  0.82365649  0.70811297  0.51845014    -0.66100
O717        O  0.74938040  0.79009417  0.49277517    -1.12700
C718        C  0.67984787  0.66000285  0.48969016     1.05500
O719        O  0.81184939  0.67169037  0.44634199    -0.79300
O720        O  0.75407220  0.68275344  0.39190030    -0.66900
Ni721      Ni  0.73676748  0.83661375  0.54143183     1.34900
C722        C  0.74202511  0.71934700  0.37468804     0.84200
O723        O  0.82227165  0.79609139  0.50572255    -0.79900
O724        O  0.78720116  0.85358360  0.53368472    -0.90100
C725        C  0.83252042  0.67943090  0.48245889     0.83800
O726        O  0.73879373  0.80501297  0.61304182    -0.68300
O727        O  0.71013783  0.63941280  0.48331072    -0.87600
C728        C  0.75665959  0.77180462  0.62758784     0.84600
C729        C  0.81823669  0.83580519  0.51891202     1.06200
H730        H  0.74209930  0.69567711  0.54897118     0.38000
O731        O  0.74970339  0.70711582  0.50966788    -1.10300
O732        O  0.72715969  0.74686126  0.40915505    -0.66900
Ni733      Ni  0.71294463  0.74667698  0.49129698     1.26300
O734        O  0.77644795  0.74955099  0.59096569    -0.67200
O735        O  0.67731309  0.70158890  0.49054514    -0.79400
C736        C  0.66718589  0.81791905  0.51189739     0.84000
O737        O  0.67738658  0.78938887  0.47628658    -0.66600
Ni738      Ni  0.76054270  0.65746069  0.46586134     1.27400
Ni739      Ni  0.78685929  0.75048650  0.50792318     1.26100
H740        H  0.75667099  0.80361120  0.45440259     0.38500
C741        C  0.73898925  0.78953850  0.72983226    -0.26800
C742        C  0.75423279  0.75945099  0.69036502    -0.14900
C743        C  0.76646742  0.71878459  0.71200345     0.35700
C744        C  0.76274389  0.70899919  0.77177445    -0.26300
C745        C  0.74704516  0.73898801  0.81127900    -0.15500
C746        C  0.73534899  0.77990234  0.78938563     0.36800
N747        N  0.71956781  0.81206505  0.82710199    -0.89800
H748        H  0.72974183  0.82121200  0.71458875     0.17900
H749        H  0.77216342  0.67745363  0.78712945     0.17900
N750        N  0.78228601  0.68695209  0.67378042    -0.88800
H751        H  0.69350425  0.81930995  0.81778887     0.35300
H752        H  0.73549344  0.84058837  0.81802539     0.40400
H753        H  0.76663943  0.65821955  0.68293673     0.40000
H754        H  0.80856933  0.67998107  0.68236127     0.34900
C755        C  0.77317697  0.72407159  0.21147668    -0.26800
C756        C  0.75004214  0.75651330  0.19243667    -0.14900
C757        C  0.72330413  0.77490295  0.23385425     0.35700
C758        C  0.72137749  0.76213575  0.29241522    -0.26300
C759        C  0.74509467  0.73065903  0.31163693    -0.15500
C760        C  0.77111936  0.71100141  0.27037522     0.36800
N761        N  0.79594073  0.67855694  0.28817463    -0.89800
H762        H  0.79363494  0.70945044  0.18043734     0.17900
H763        H  0.70078887  0.77696435  0.32310061     0.17900
N764        N  0.69765585  0.80645137  0.21705601    -0.88800
H765        H  0.81329697  0.69406609  0.31132159     0.35300
H766        H  0.81262498  0.66670062  0.25252294     0.40400
H767        H  0.70055524  0.83504010  0.23774274     0.40000
H768        H  0.67127606  0.79404117  0.23152698     0.34900
C769        C  0.59292394  0.88560681  0.45437944    -0.26800
C770        C  0.57518023  0.90365630  0.50471029    -0.14900
C771        C  0.58663359  0.89085793  0.55755199     0.35700
C772        C  0.61555057  0.86138764  0.55885097    -0.26300
C773        C  0.63383477  0.84422607  0.50846201    -0.15500
C774        C  0.62207665  0.85610540  0.45558096     0.36800
N775        N  0.64086252  0.84018179  0.40290251    -0.89800
H776        H  0.58451302  0.89511790  0.41349969     0.17900
H777        H  0.62428619  0.85264814  0.59974011     0.17900
N778        N  0.56989447  0.90857423  0.60999336    -0.88800
H779        H  0.63058822  0.85477657  0.36752501     0.35300
H780        H  0.63502034  0.80671861  0.40386643     0.40400
H781        H  0.59011326  0.92451096  0.62709218     0.40000
H782        H  0.55962722  0.88253047  0.63912010     0.34900
C783        C  0.88319294  0.92373987  0.54817816    -0.26800
C784        C  0.91368948  0.91724828  0.50598930    -0.14900
C785        C  0.91301781  0.88289677  0.46909739     0.35700
C786        C  0.88202369  0.85609514  0.47510867    -0.26300
C787        C  0.85119302  0.86322139  0.51645270    -0.15500
C788        C  0.85191860  0.89722051  0.55383645     0.36800
N789        N  0.82113641  0.90444784  0.59777413    -0.89800
H790        H  0.88362661  0.94997810  0.57660960     0.17900
H791        H  0.88177319  0.83006940  0.44631722     0.17900
N792        N  0.94353984  0.87374024  0.42606564    -0.88800
H793        H  0.82601885  0.93104409  0.62103056     0.35300
H794        H  0.81829971  0.87682975  0.62689221     0.40400
H795        H  0.96667807  0.86909685  0.44576237     0.40000
H796        H  0.94797011  0.90049299  0.39571676     0.34900
C797        C  0.88005213  0.63090695  0.43330009    -0.26800
C798        C  0.86703975  0.65437038  0.48151351    -0.14900
C799        C  0.88555649  0.65034791  0.52925218     0.35700
C800        C  0.91495069  0.62121613  0.52926773    -0.26300
C801        C  0.92662243  0.59589151  0.48232609    -0.15500
C802        C  0.90949942  0.60196733  0.43316077     0.36800
N803        N  0.92082015  0.57769362  0.38366209    -0.89800
H804        H  0.86665683  0.63399977  0.39575349     0.17900
H805        H  0.92807612  0.61765135  0.56705358     0.17900
N806        N  0.87385790  0.67437962  0.57881979    -0.88800
H807        H  0.92827988  0.60005208  0.34814600     0.35300
H808        H  0.89842932  0.55950214  0.37639223     0.40400
H809        H  0.89590184  0.69336819  0.58567510     0.40000
H810        H  0.86710696  0.65191647  0.61440667     0.34900
C811        C  0.60895922  0.56946360  0.53058681    -0.26800
C812        C  0.58268038  0.58304156  0.49673978    -0.14900
C813        C  0.58742673  0.62331598  0.46332830     0.35700
C814        C  0.61865999  0.64871986  0.46344145    -0.26300
C815        C  0.64582933  0.63418609  0.49514553    -0.15500
C816        C  0.64072439  0.59447459  0.52979934     0.36800
N817        N  0.66773722  0.57979816  0.56400432    -0.89800
H818        H  0.60508984  0.53867318  0.55656665     0.17900
H819        H  0.62230282  0.67934355  0.43708346     0.17900
N820        N  0.56078193  0.63943756  0.42961208    -0.88800
H821        H  0.65989357  0.54984799  0.58668183     0.35300
H822        H  0.66869881  0.60255955  0.59474408     0.40400
H823        H  0.53558663  0.64113691  0.45671529     0.40000
H824        H  0.55843411  0.61731918  0.39865666     0.34900
C825        C  0.59266085  0.88857045  0.95921012    -0.26800
C826        C  0.57292280  0.90241506  0.01088710    -0.14900
C827        C  0.58279729  0.88588693  0.06357447     0.35700
C828        C  0.61342027  0.85882519  0.06331415    -0.26300
C829        C  0.63428209  0.84730720  0.01151410    -0.15500
C830        C  0.62318688  0.86141156  0.95912325     0.36800
N831        N  0.64403604  0.85041260  0.90553987    -0.89800
H832        H  0.58547001  0.90031976  0.91820121     0.17900
H833        H  0.62140729  0.84754360  0.10397475     0.17900
N834        N  0.56246360  0.89706382  0.11749681    -0.88800
H835        H  0.65290664  0.87954363  0.88157981     0.35300
H836        H  0.62672324  0.83420176  0.88303425     0.40400
H837        H  0.58025358  0.91241002  0.14005896     0.40000
H838        H  0.55303239  0.86801722  0.14115863     0.34900
C839        C  0.89139597  0.91408684  0.06406636    -0.26800
C840        C  0.91698536  0.91766872  0.01281388    -0.14900
C841        C  0.91170606  0.89172685  0.96726549     0.35700
C842        C  0.88123998  0.86393334  0.97373371    -0.26300
C843        C  0.85513839  0.86194193  0.02396636    -0.15500
C844        C  0.86050541  0.88668999  0.07000872     0.36800
N845        N  0.83460189  0.88381415  0.12260800    -0.89800
H846        H  0.89503699  0.93341268  0.09944522     0.17900
H847        H  0.87723937  0.84485462  0.93825952     0.17900
N848        N  0.93661622  0.89251893  0.91400516    -0.88800
H849        H  0.84248436  0.90416851  0.15223633     0.35300
H850        H  0.83513274  0.85170409  0.14082832     0.40400
H851        H  0.96282198  0.88521658  0.92268148     0.40000
H852        H  0.93654730  0.92374405  0.89304506     0.34900
C853        C  0.91277278  0.60758710  0.93575766    -0.26800
C854        C  0.92439608  0.59652056  0.98859146    -0.14900
C855        C  0.90854790  0.61835132  0.03753028     0.35700
C856        C  0.87954184  0.64750389  0.03337332    -0.26300
C857        C  0.86616626  0.65595576  0.98149284    -0.15500
C858        C  0.88411371  0.63683606  0.93157849     0.36800
N859        N  0.87428852  0.64654758  0.87586895    -0.89800
H860        H  0.92529118  0.59243522  0.89730601     0.17900
H861        H  0.86654005  0.66265662  0.07154200     0.17900
N862        N  0.92144610  0.61061106  0.09151204    -0.88800
H863        H  0.87465187  0.68054592  0.86712106     0.35300
H864        H  0.84810786  0.63428828  0.87551019     0.40400
H865        H  0.90607227  0.62821531  0.12333568     0.40000
H866        H  0.94812624  0.62298843  0.08597184     0.34900
C867        C  0.60899894  0.57663548  0.03393929    -0.26800
C868        C  0.58171716  0.58995327  0.00197692    -0.14900
C869        C  0.58577893  0.62972890  0.96783396     0.35700
C870        C  0.61750015  0.65524398  0.96520350    -0.26300
C871        C  0.64558736  0.64097367  0.99524735    -0.15500
C872        C  0.64104712  0.60156781  0.03067581     0.36800
N873        N  0.66896826  0.58707959  0.06322336    -0.89800
H874        H  0.60569220  0.54601345  0.06034513     0.17900
H875        H  0.62065455  0.68562181  0.93830094     0.17900
N876        N  0.55761274  0.64442206  0.93632782    -0.88800
H877        H  0.66149689  0.55731698  0.08665942     0.35300
H878        H  0.67081348  0.61011345  0.09331160     0.40400
H879        H  0.56905349  0.64853081  0.89279076     0.40000
H880        H  0.54879301  0.67506332  0.94992566     0.33900
loop_ 
_geom_bond_atom_site_label_1 
_geom_bond_atom_site_label_2 
_geom_bond_distance 
_geom_bond_site_symmetry_2 
_ccdc_geom_bond_type 
O1           Ni9   1.912       .  S
O1           C11   1.281       .  A
O2         Ni669   1.914   1_455  S
O2           C12   1.281   1_554  A
O3         Ni229   1.917   1_545  S
O3           C13   1.281   1_554  A
O4         Ni449   1.914   1_455  S
O4           C14   1.281       .  A
O5         Ni230   1.918       .  S
O5           C14   1.282   1_556  A
O6         Ni450   1.912   1_545  S
O6           C13   1.281       .  A
O7          Ni10   1.917       .  S
O7           C12   1.281       .  A
O8         Ni670   1.921       .  S
O8           C11   1.281   1_556  A
Ni9         O662   1.913       .  S
Ni9         O223   1.920       .  S
Ni9         O444   1.912       .  S
Ni9        Ni670   2.385   1_554  S
Ni10        O225   1.917   1_545  S
Ni10        O446   1.912   1_455  S
Ni10        O668   1.918   1_445  S
Ni10       Ni669   2.384   1_456  S
C11         C180   1.483       .  S
C12         C208   1.479       .  S
C13         C194   1.484       .  S
C14         C166   1.490       .  S
O15        Ni683   1.906   1_445  S
O15          C25   1.279       .  A
O16         Ni23   1.911       .  S
O16          C26   1.281       .  A
O17        Ni463   1.920   1_455  S
O17          C27   1.282       .  A
O18        Ni243   1.918   1_545  S
O18          C28   1.283       .  A
O19        Ni464   1.911   1_545  S
O19          C28   1.280       .  A
O20        Ni244   1.919       .  S
O20          C27   1.281       .  A
O21        Ni684   1.921       .  S
O21          C26   1.281       .  A
O22         Ni24   1.913   1_545  S
O22          C25   1.280       .  A
Ni23        O675   1.912       .  S
Ni23        O457   1.915       .  S
Ni23        O238   1.919       .  S
Ni23       Ni684   2.385       .  S
Ni24        O459   1.921   1_465  S
Ni24        O240   1.925       .  S
Ni24        O681   1.913   1_455  S
Ni24       Ni683   2.387   1_455  S
C25         C152   1.464       .  S
C26         C124   1.487       .  S
C27         C110   1.484       .  S
C28         C141   1.483       .  S
O29         Ni35   1.926       .  S
O29          C50   1.271       .  A
O30         Ni53   1.911       .  S
O30          C39   1.269   1_554  A
O31         Ni35   1.905   1_556  S
O31         Ni53   1.911   1_556  S
O31         Ni47   1.912       .  S
O31          H54   0.967       .  S
C32          O49   1.276       .  A
C32          O41   1.276       .  A
C32         C211   1.468       .  S
O33         Ni52   1.926       .  S
O33          C39   1.269       .  A
O34         Ni52   1.913       .  S
O34          C36   1.269       .  A
Ni35         O38   1.921       .  S
Ni35         O40   1.897       .  S
C36          O46   1.272       .  A
C36          C85   1.494       .  S
O37         Ni53   1.917       .  S
O37          C43   1.274       .  A
O38          C43   1.275       .  A
C39         C197   1.489       .  S
O40          C42   1.266       .  A
O41         Ni52   1.919       .  S
C42          O48   1.276       .  A
C42          C96   1.495       .  S
C43         C183   1.480       .  S
H44          O45   0.966       .  S
O45         Ni53   1.907       .  S
O45         Ni47   1.901   1_554  S
O45         Ni52   1.903   1_554  S
O46         Ni47   1.925       .  S
Ni47         O51   1.911       .  S
Ni47         O49   1.922       .  S
O48         Ni53   1.942       .  S
C50          O51   1.269   1_554  A
C50         C169   1.483       .  S
O55         Ni61   1.924       .  S
O55          C76   1.270       .  A
O56         Ni79   1.907       .  S
O56          C65   1.268       .  A
O57         Ni61   1.902       .  S
O57         Ni79   1.905       .  S
O57         Ni73   1.912       .  S
O57          H80   0.966       .  S
C58          O75   1.278       .  A
C58          O67   1.276       .  A
C58         C155   1.471       .  S
O59         Ni78   1.926       .  S
O59          C65   1.271       .  A
O60         Ni78   1.907       .  S
O60          C62   1.268       .  A
Ni61         O64   1.921       .  S
Ni61         O66   1.900       .  S
C62          O72   1.275       .  A
C62          C99   1.496       .  S
O63         Ni79   1.919       .  S
O63          C69   1.276       .  A
O64          C69   1.277       .  A
C65         C138   1.485       .  S
O66          C68   1.267       .  A
O67         Ni78   1.914       .  S
C68          O74   1.273       .  A
C68          C82   1.496       .  S
C69         C127   1.476       .  S
H70          O71   0.966       .  S
O71         Ni79   1.910       .  S
O71         Ni73   1.906       .  S
O71         Ni78   1.903       .  S
O72         Ni73   1.931       .  S
Ni73         O77   1.922       .  S
Ni73         O75   1.920       .  S
O74         Ni79   1.937       .  S
C76          O77   1.272       .  A
C76         C113   1.494       .  S
C81          C82   1.408       .  A
C81          C86   1.402       .  A
C81          H88   1.083       .  S
C82          C83   1.414       .  A
C83          C84   1.408       .  A
C83          N90   1.432       .  S
C84          C85   1.409       .  A
C84          H89   1.084       .  S
C85          C86   1.412       .  A
C86          N87   1.432       .  S
N87          H91   1.046       .  S
N87          H92   1.046       .  S
N90          H93   1.046       .  S
N90          H94   1.046       .  S
C95          C96   1.405       .  A
C95         C100   1.407       .  A
C95         H102   1.084       .  S
C96          C97   1.418       .  A
C97          C98   1.402       .  A
C97         N104   1.433       .  S
C98          C99   1.404       .  A
C98         H103   1.084       .  S
C99         C100   1.419       .  A
C100        N101   1.433       .  S
N101        H105   1.046       .  S
N101        H106   1.046       .  S
N104        H107   1.046       .  S
N104        H108   1.046       .  S
C109        C110   1.406       .  A
C109        C114   1.408       .  A
C109        H116   1.084       .  S
C110        C111   1.409       .  A
C111        C112   1.401       .  A
C111        N118   1.433       .  S
C112        C113   1.410       .  A
C112        H117   1.083       .  S
C113        C114   1.413       .  A
C114        N115   1.432       .  S
N115        H119   1.046       .  S
N115        H120   1.046       .  S
N118        H121   1.046       .  S
N118        H122   1.045       .  S
C123        C124   1.406       .  A
C123        C128   1.401       .  A
C123        H130   1.083       .  S
C124        C125   1.420       .  A
C125        C126   1.403       .  A
C125        N132   1.432       .  S
C126        C127   1.403       .  A
C126        H131   1.084       .  S
C127        C128   1.410       .  A
C128        N129   1.439       .  S
N129        H133   1.046       .  S
N129        H134   1.046       .  S
N132        H135   1.045       .  S
N132        H136   1.045       .  S
C137        C138   1.406       .  A
C137        C142   1.402       .  A
C137        H144   1.084       .  S
C138        C139   1.412       .  A
C139        C140   1.403       .  A
C139        N146   1.432       .  S
C140        C141   1.404       .  A
C140        H145   1.084       .  S
C141        C142   1.413       .  A
C142        N143   1.433       .  S
N143        H147   1.046       .  S
N143        H148   1.046       .  S
N146        H149   1.046       .  S
N146        H150   1.046       .  S
C151        C152   1.399       .  A
C151        C156   1.398       .  A
C151        H158   1.085       .  S
C152        C153   1.411       .  A
C153        C154   1.399       .  A
C153        N160   1.433       .  S
C154        C155   1.404       .  A
C154        H159   1.084       .  S
C155        C156   1.410       .  A
C156        N157   1.433       .  S
N157        H161   1.046       .  S
N157        H162   1.046       .  S
N160        H163   1.046       .  S
N160        H164   1.045       .  S
C165        C166   1.408   1_556  A
C165        C170   1.405       .  A
C165        H172   1.083       .  S
C166        C167   1.414       .  A
C167        C168   1.400       .  A
C167        N174   1.433       .  S
C168        C169   1.404       .  A
C168        H173   1.084       .  S
C169        C170   1.409   1_554  A
C170        N171   1.431       .  S
N171        H175   1.046       .  S
N171        H176   1.045       .  S
N174        H177   1.046       .  S
N174        H178   1.046       .  S
C179        C180   1.403       .  A
C179        C184   1.398       .  A
C179        H186   1.084       .  S
C180        C181   1.419   1_554  A
C181        C182   1.404       .  A
C181        N188   1.432       .  S
C182        C183   1.404   1_556  A
C182        H187   1.084       .  S
C183        C184   1.410       .  A
C184        N185   1.433       .  S
N185        H189   1.046       .  S
N185        H190   1.046       .  S
N188        H191   1.046       .  S
N188        H192   1.044       .  S
C193        C194   1.403       .  A
C193        C198   1.396       .  A
C193        H200   1.084       .  S
C194        C195   1.411   1_556  A
C195        C196   1.404       .  A
C195        N202   1.432       .  S
C196        C197   1.407   1_554  A
C196        H201   1.084       .  S
C197        C198   1.421       .  A
C198        N199   1.433       .  S
N199        H203   1.045       .  S
N199        H204   1.045       .  S
N202        H205   1.046       .  S
N202        H206   1.046       .  S
C207        C208   1.404   1_554  A
C207        C212   1.402       .  A
C207        H214   1.084       .  S
C208        C209   1.414       .  A
C209        C210   1.407       .  A
C209        N216   1.438       .  S
C210        C211   1.401       .  A
C210        H215   1.084       .  S
C211        C212   1.407   1_556  A
C212        N213   1.438       .  S
N213        H217   1.046       .  S
N213        H218   1.046       .  S
N216        H219   1.046       .  S
N216        H220   1.046       .  S
O221       Ni229   1.918       .  S
O221        C231   1.282       .  A
O222       Ni449   1.915   1_455  S
O222        C232   1.281   1_554  A
O223        C233   1.282   1_554  A
O224       Ni669   1.907   1_465  S
O224        C234   1.280       .  A
O225        C234   1.282   1_556  A
O226       Ni670   1.914       .  S
O226        C233   1.282       .  A
O227       Ni230   1.913       .  S
O227        C232   1.281       .  A
O228       Ni450   1.911       .  S
O228        C231   1.279   1_556  A
Ni229       O442   1.918   1_565  S
Ni229       O664   1.918       .  S
Ni229      Ni450   2.386   1_554  S
Ni230       O666   1.919   1_455  S
Ni230       O448   1.916   1_455  S
Ni230      Ni449   2.384   1_456  S
C231        C400   1.479       .  S
C232        C428   1.478       .  S
C233        C414   1.489       .  S
C234        C386   1.485       .  S
O235       Ni463   1.910   1_455  S
O235        C245   1.279       .  A
O236       Ni243   1.905       .  S
O236        C246   1.279       .  A
O237       Ni683   1.915   1_455  S
O237        C247   1.281       .  A
O238        C248   1.282       .  A
O239       Ni684   1.916       .  S
O239        C248   1.281       .  A
O240        C247   1.283       .  A
O241       Ni464   1.928       .  S
O241        C246   1.283       .  A
O242       Ni244   1.917       .  S
O242        C245   1.280       .  A
Ni243       O455   1.906   1_565  S
Ni243       O677   1.917       .  S
Ni243      Ni464   2.386       .  S
Ni244       O679   1.915   1_455  S
Ni244       O461   1.916   1_455  S
Ni244      Ni463   2.387   1_455  S
C245        C372   1.464       .  S
C246        C344   1.482       .  S
C247        C330   1.487       .  S
C248        C361   1.487       .  S
O249       Ni255   1.922       .  S
O249        C270   1.269       .  A
O250       Ni273   1.909       .  S
O250        C259   1.268   1_554  A
O251       Ni255   1.908   1_556  S
O251       Ni273   1.906   1_556  S
O251       Ni267   1.910       .  S
O251        H274   0.967       .  S
C252        O269   1.274       .  A
C252        O261   1.276       .  A
C252        C431   1.476       .  S
O253       Ni272   1.928       .  S
O253        C259   1.269       .  A
O254       Ni272   1.904       .  S
O254        C256   1.268       .  A
Ni255       O258   1.918       .  S
Ni255       O260   1.896       .  S
C256        O266   1.271       .  A
C256        C305   1.493       .  S
O257       Ni273   1.914       .  S
O257        C263   1.275       .  A
O258        C263   1.275       .  A
C259        C417   1.486       .  S
O260        C262   1.265       .  A
O261       Ni272   1.921       .  S
C262        O268   1.273       .  A
C262        C316   1.489       .  S
C263        C403   1.475       .  S
H264        O265   0.966       .  S
O265       Ni273   1.911       .  S
O265       Ni267   1.906   1_554  S
O265       Ni272   1.910   1_554  S
O266       Ni267   1.926       .  S
Ni267       O271   1.909       .  S
Ni267       O269   1.913       .  S
O268       Ni273   1.930       .  S
C270        O271   1.266   1_554  A
C270        C389   1.481       .  S
O275       Ni281   1.927       .  S
O275        C296   1.272       .  A
O276       Ni299   1.910       .  S
O276        C285   1.267       .  A
O277       Ni281   1.903       .  S
O277       Ni299   1.905       .  S
O277       Ni293   1.911       .  S
O277        H300   0.966       .  S
C278        O295   1.278       .  A
C278        O287   1.277       .  A
C278        C375   1.479       .  S
O279       Ni298   1.928       .  S
O279        C285   1.271       .  A
O280       Ni298   1.900       .  S
O280        C282   1.266       .  A
Ni281       O284   1.926       .  S
Ni281       O286   1.902       .  S
C282        O292   1.274       .  A
C282        C319   1.491       .  S
O283       Ni299   1.913       .  S
O283        C289   1.275       .  A
O284        C289   1.278       .  A
C285        C358   1.487       .  S
O286        C288   1.267       .  A
O287       Ni298   1.918       .  S
C288        O294   1.271       .  A
C288        C302   1.493       .  S
C289        C347   1.480       .  S
H290        O291   0.966       .  S
O291       Ni299   1.908       .  S
O291       Ni293   1.909       .  S
O291       Ni298   1.902       .  S
O292       Ni293   1.929       .  S
Ni293       O297   1.921       .  S
Ni293       O295   1.920       .  S
O294       Ni299   1.930       .  S
C296        O297   1.271       .  A
C296        C333   1.496       .  S
C301        C302   1.407       .  A
C301        C306   1.402       .  A
C301        H308   1.083       .  S
C302        C303   1.413       .  A
C303        C304   1.405       .  A
C303        N310   1.432       .  S
C304        C305   1.409       .  A
C304        H309   1.083       .  S
C305        C306   1.413       .  A
C306        N307   1.433       .  S
N307        H311   1.045       .  S
N307        H312   1.046       .  S
N310        H313   1.046       .  S
N310        H314   1.045       .  S
C315        C316   1.404       .  A
C315        C320   1.405       .  A
C315        H322   1.083       .  S
C316        C317   1.415       .  A
C317        C318   1.401       .  A
C317        N324   1.433       .  S
C318        C319   1.404       .  A
C318        H323   1.084       .  S
C319        C320   1.420       .  A
C320        N321   1.438       .  S
N321        H325   1.046       .  S
N321        H326   1.046       .  S
N324        H327   1.046       .  S
N324        H328   1.046       .  S
C329        C330   1.407       .  A
C329        C334   1.414       .  A
C329        H336   1.083       .  S
C330        C331   1.410       .  A
C331        C332   1.399       .  A
C331        N338   1.433       .  S
C332        C333   1.408       .  A
C332        H337   1.083       .  S
C333        C334   1.417       .  A
C334        N335   1.437       .  S
N335        H339   1.046       .  S
N335        H340   1.046       .  S
N338        H341   1.046       .  S
N338        H342   1.046       .  S
C343        C344   1.406       .  A
C343        C348   1.402       .  A
C343        H350   1.084       .  S
C344        C345   1.415       .  A
C345        C346   1.402       .  A
C345        N352   1.432       .  S
C346        C347   1.406       .  A
C346        H351   1.084       .  S
C347        C348   1.411       .  A
C348        N349   1.439       .  S
N349        H353   1.046       .  S
N349        H354   1.046       .  S
N352        H355   1.046       .  S
N352        H356   1.045       .  S
C357        C358   1.405       .  A
C357        C362   1.401       .  A
C357        H364   1.084       .  S
C358        C359   1.412       .  A
C359        C360   1.406       .  A
C359        N366   1.432       .  S
C360        C361   1.407       .  A
C360        H365   1.084       .  S
C361        C362   1.413       .  A
C362        N363   1.433       .  S
N363        H367   1.046       .  S
N363        H368   1.046       .  S
N366        H369   1.046       .  S
N366        H370   1.045       .  S
C371        C372   1.397       .  A
C371        C376   1.398       .  A
C371        H378   1.085       .  S
C372        C373   1.410       .  A
C373        C374   1.402       .  A
C373        N380   1.432       .  S
C374        C375   1.407       .  A
C374        H379   1.084       .  S
C375        C376   1.413       .  A
C376        N377   1.433       .  S
N377        H381   1.046       .  S
N377        H382   1.046       .  S
N380        H383   1.046       .  S
N380        H384   1.045       .  S
C385        C386   1.408   1_556  A
C385        C390   1.409       .  A
C385        H392   1.083       .  S
C386        C387   1.412       .  A
C387        C388   1.395       .  A
C387        N394   1.433       .  S
C388        C389   1.403       .  A
C388        H393   1.084       .  S
C389        C390   1.413   1_554  A
C390        N391   1.437       .  S
N391        H395   1.046       .  S
N391        H396   1.045       .  S
N394        H397   1.046       .  S
N394        H398   1.046       .  S
C399        C400   1.403       .  A
C399        C404   1.400       .  A
C399        H406   1.084       .  S
C400        C401   1.419   1_554  A
C401        C402   1.399       .  A
C401        N408   1.433       .  S
C402        C403   1.401   1_556  A
C402        H407   1.084       .  S
C403        C404   1.410       .  A
C404        N405   1.433       .  S
N405        H409   1.045       .  S
N405        H410   1.046       .  S
N408        H411   1.046       .  S
N408        H412   1.044       .  S
C413        C414   1.405       .  A
C413        C418   1.397       .  A
C413        H420   1.084       .  S
C414        C415   1.413   1_556  A
C415        C416   1.405       .  A
C415        N422   1.432       .  S
C416        C417   1.405   1_554  A
C416        H421   1.084       .  S
C417        C418   1.419       .  A
C418        N419   1.433       .  S
N419        H423   1.046       .  S
N419        H424   1.044       .  S
N422        H425   1.046       .  S
N422        H426   1.046       .  S
C427        C428   1.406   1_554  A
C427        C432   1.407       .  A
C427        H434   1.084       .  S
C428        C429   1.410       .  A
C429        C430   1.399       .  A
C429        N436   1.433       .  S
C430        C431   1.402       .  A
C430        H435   1.084       .  S
C431        C432   1.412   1_556  A
C432        N433   1.438       .  S
N433        H437   1.046       .  S
N433        H438   1.046       .  S
N436        H439   1.046       .  S
N436        H440   1.046       .  S
O441       Ni449   1.916       .  S
O441        C451   1.281       .  A
O442        C452   1.281   1_554  A
O443       Ni669   1.908       .  S
O443        C453   1.279       .  A
O444        C454   1.281       .  A
O445       Ni670   1.915       .  S
O445        C454   1.281   1_556  A
O446        C453   1.282   1_556  A
O447       Ni450   1.913   1_545  S
O447        C452   1.281       .  A
O448        C451   1.280   1_556  A
Ni449       O663   1.910       .  S
Ni450       O665   1.908       .  S
C451        C620   1.483       .  S
C452        C648   1.477       .  S
C453        C634   1.483       .  S
C454        C606   1.484       .  S
O455        C465   1.277       .  A
O456       Ni463   1.915       .  S
O456        C466   1.281       .  A
O457        C467   1.281       .  A
O458       Ni683   1.916   1_545  S
O458        C468   1.282       .  A
O459        C468   1.282       .  A
O460       Ni684   1.918       .  S
O460        C467   1.282       .  A
O461        C466   1.280       .  A
O462       Ni464   1.928   1_545  S
O462        C465   1.283       .  A
Ni463       O678   1.919       .  S
Ni464       O680   1.914       .  S
C465        C592   1.471       .  S
C466        C564   1.485       .  S
C467        C550   1.487       .  S
C468        C581   1.491       .  S
O469       Ni475   1.926       .  S
O469        C490   1.271       .  A
O470       Ni493   1.901       .  S
O470        C479   1.266   1_554  A
O471       Ni475   1.906       .  S
O471       Ni493   1.902       .  S
O471       Ni487   1.912       .  S
O471        H494   0.967   1_554  S
C472        O489   1.277       .  A
C472        O481   1.276       .  A
C472        C651   1.481       .  S
O473       Ni492   1.924       .  S
O473        C479   1.268       .  A
O474       Ni492   1.901       .  S
O474        C476   1.267       .  A
Ni475       O478   1.925       .  S
Ni475       O480   1.900       .  S
C476        O486   1.271       .  A
C476        C525   1.491       .  S
O477       Ni493   1.913       .  S
O477        C483   1.274       .  A
O478        C483   1.277       .  A
C479        C637   1.475       .  S
O480        C482   1.266       .  A
O481       Ni492   1.919       .  S
C482        O488   1.274       .  A
C482        C536   1.492       .  S
C483        C623   1.477       .  S
H484        O485   0.966       .  S
O485       Ni493   1.908       .  S
O485       Ni487   1.904       .  S
O485       Ni492   1.909   1_554  S
O486       Ni487   1.928   1_556  S
Ni487       O491   1.907   1_554  S
Ni487       O489   1.921   1_554  S
O488       Ni493   1.934       .  S
C490        O491   1.267   1_554  A
C490        C609   1.484       .  S
O495       Ni501   1.930       .  S
O495        C516   1.273       .  A
O496       Ni519   1.911       .  S
O496        C505   1.267       .  A
O497       Ni501   1.906       .  S
O497       Ni519   1.903       .  S
O497       Ni513   1.912       .  S
O497        H520   0.966       .  S
C498        O515   1.277       .  A
C498        O507   1.277       .  A
C498        C595   1.480       .  S
O499       Ni518   1.930       .  S
O499        C505   1.270       .  A
O500       Ni518   1.908       .  S
O500        C502   1.268       .  A
Ni501       O504   1.930       .  S
Ni501       O506   1.899       .  S
C502        O512   1.272       .  A
C502        C539   1.489       .  S
O503       Ni519   1.907       .  S
O503        C509   1.274       .  A
O504        C509   1.278       .  A
C505        C578   1.482       .  S
O506        C508   1.268       .  A
O507       Ni518   1.921       .  S
C508        O514   1.273       .  A
C508        C522   1.492       .  S
C509        C567   1.477       .  S
H510        O511   0.966       .  S
O511       Ni519   1.909       .  S
O511       Ni513   1.907       .  S
O511       Ni518   1.908       .  S
O512       Ni513   1.923       .  S
Ni513       O517   1.911       .  S
Ni513       O515   1.923       .  S
O514       Ni519   1.931       .  S
C516        O517   1.269       .  A
C516        C553   1.487       .  S
C521        C522   1.408       .  A
C521        C526   1.402       .  A
C521        H528   1.083       .  S
C522        C523   1.413       .  A
C523        C524   1.404       .  A
C523        N530   1.432       .  S
C524        C525   1.408       .  A
C524        H529   1.084       .  S
C525        C526   1.412       .  A
C526        N527   1.432       .  S
N527        H531   1.045       .  S
N527        H532   1.046       .  S
N530        H533   1.046       .  S
N530        H534   1.046       .  S
C535        C536   1.406       .  A
C535        C540   1.405       .  A
C535        H542   1.084       .  S
C536        C537   1.417       .  A
C537        C538   1.402       .  A
C537        N544   1.433       .  S
C538        C539   1.404       .  A
C538        H543   1.084       .  S
C539        C540   1.415       .  A
C540        N541   1.433       .  S
N541        H545   1.046       .  S
N541        H546   1.046       .  S
N544        H547   1.046       .  S
N544        H548   1.046       .  S
C549        C550   1.408       .  A
C549        C554   1.407       .  A
C549        H556   1.084       .  S
C550        C551   1.412       .  A
C551        C552   1.400       .  A
C551        N558   1.433       .  S
C552        C553   1.405       .  A
C552        H557   1.084       .  S
C553        C554   1.412       .  A
C554        N555   1.432       .  S
N555        H559   1.046       .  S
N555        H560   1.046       .  S
N558        H561   1.046       .  S
N558        H562   1.046       .  S
C563        C564   1.407       .  A
C563        C568   1.405       .  A
C563        H570   1.084       .  S
C564        C565   1.418       .  A
C565        C566   1.398       .  A
C565        N572   1.432       .  S
C566        C567   1.402       .  A
C566        H571   1.084       .  S
C567        C568   1.411       .  A
C568        N569   1.438       .  S
N569        H573   1.046       .  S
N569        H574   1.046       .  S
N572        H575   1.046       .  S
N572        H576   1.044       .  S
C577        C578   1.404       .  A
C577        C582   1.403       .  A
C577        H584   1.084       .  S
C578        C579   1.408       .  A
C579        C580   1.404       .  A
C579        N586   1.432       .  S
C580        C581   1.408       .  A
C580        H585   1.083       .  S
C581        C582   1.414       .  A
C582        N583   1.432       .  S
N583        H587   1.046       .  S
N583        H588   1.046       .  S
N586        H589   1.046       .  S
N586        H590   1.046       .  S
C591        C592   1.401       .  A
C591        C596   1.404       .  A
C591        H598   1.084       .  S
C592        C593   1.410       .  A
C593        C594   1.402       .  A
C593        N600   1.432       .  S
C594        C595   1.406       .  A
C594        H599   1.084       .  S
C595        C596   1.413       .  A
C596        N597   1.438       .  S
N597        H601   1.046       .  S
N597        H602   1.046       .  S
N600        H603   1.046       .  S
N600        H604   1.045       .  S
C605        C606   1.407   1_556  A
C605        C610   1.407       .  A
C605        H612   1.083       .  S
C606        C607   1.411       .  A
C607        C608   1.398       .  A
C607        N614   1.433       .  S
C608        C609   1.405       .  A
C608        H613   1.084       .  S
C609        C610   1.415   1_554  A
C610        N611   1.437       .  S
N611        H615   1.046       .  S
N611        H616   1.045       .  S
N614        H617   1.046       .  S
N614        H618   1.046       .  S
C619        C620   1.405       .  A
C619        C624   1.404       .  A
C619        H626   1.084       .  S
C620        C621   1.418   1_554  A
C621        C622   1.400       .  A
C621        N628   1.433       .  S
C622        C623   1.403   1_556  A
C622        H627   1.084       .  S
C623        C624   1.411       .  A
C624        N625   1.438       .  S
N625        H629   1.046       .  S
N625        H630   1.046       .  S
N628        H631   1.046       .  S
N628        H632   1.044       .  S
C633        C634   1.405   1_556  A
C633        C638   1.394       .  A
C633        H640   1.084       .  S
C634        C635   1.415       .  A
C635        C636   1.401       .  A
C635        N642   1.433       .  S
C636        C637   1.402   1_554  A
C636        H641   1.084       .  S
C637        C638   1.416       .  A
C638        N639   1.434       .  S
N639        H643   1.046       .  S
N639        H644   1.044       .  S
N642        H645   1.046       .  S
N642        H646   1.046       .  S
C647        C648   1.405   1_554  A
C647        C652   1.406       .  A
C647        H654   1.084       .  S
C648        C649   1.409       .  A
C649        C650   1.400       .  A
C649        N656   1.433       .  S
C650        C651   1.405       .  A
C650        H655   1.084       .  S
C651        C652   1.410   1_556  A
C652        N653   1.432       .  S
N653        H657   1.046       .  S
N653        H658   1.046       .  S
N656        H659   1.046       .  S
N656        H660   1.046       .  S
O661       Ni669   1.914   1_565  S
O661        C671   1.281       .  A
O662        C672   1.280       .  A
O663        C673   1.280   1_554  A
O664        C674   1.282       .  A
O665        C674   1.280   1_556  A
O666        C673   1.283       .  A
O667       Ni670   1.921       .  S
O667        C672   1.281   1_556  A
O668        C671   1.281   1_556  A
C671        C840   1.489       .  S
C672        C868   1.472       .  S
C673        C854   1.489       .  S
C674        C826   1.485       .  S
O675        C685   1.279       .  A
O676       Ni683   1.909       .  S
O676        C686   1.280       .  A
O677        C687   1.282       .  A
O678        C688   1.283       .  A
O679        C688   1.281       .  A
O680        C687   1.281       .  A
O681        C686   1.280       .  A
O682       Ni684   1.919       .  S
O682        C685   1.281       .  A
C685        C812   1.471       .  S
C686        C784   1.474       .  S
C687        C770   1.489       .  S
C688        C801   1.487       .  S
O689       Ni695   1.932       .  S
O689        C710   1.272       .  A
O690       Ni713   1.909       .  S
O690        C699   1.270   1_554  A
O691       Ni695   1.906   1_556  S
O691       Ni713   1.905   1_556  S
O691       Ni707   1.911       .  S
O691        H714   0.967       .  S
C692        O709   1.278       .  A
C692        O701   1.277       .  A
C692        C871   1.477       .  S
O693       Ni712   1.925       .  S
O693        C699   1.268       .  A
O694       Ni712   1.911       .  S
O694        C696   1.269       .  A
Ni695       O698   1.931       .  S
Ni695       O700   1.896       .  S
C696        O706   1.271       .  A
C696        C745   1.496       .  S
O697       Ni713   1.909       .  S
O697        C703   1.273       .  A
O698        C703   1.277       .  A
C699        C857   1.483       .  S
O700        C702   1.266       .  A
O701       Ni712   1.920       .  S
C702        O708   1.276       .  A
C702        C756   1.496       .  S
C703        C843   1.475       .  S
H704        O705   0.966       .  S
O705       Ni713   1.907       .  S
O705       Ni707   1.897   1_554  S
O705       Ni712   1.902   1_554  S
O706       Ni707   1.924       .  S
Ni707       O711   1.901       .  S
Ni707       O709   1.925       .  S
O708       Ni713   1.944       .  S
C710        O711   1.267   1_554  A
C710        C829   1.474       .  S
O715       Ni721   1.925       .  S
O715        C736   1.271       .  A
O716       Ni739   1.911       .  S
O716        C725   1.269       .  A
O717       Ni721   1.900       .  S
O717       Ni739   1.901       .  S
O717       Ni733   1.905       .  S
O717        H740   0.966       .  S
C718        O735   1.276       .  A
C718        O727   1.277       .  A
C718        C815   1.474       .  S
O719       Ni738   1.927       .  S
O719        C725   1.271       .  A
O720       Ni738   1.912       .  S
O720        C722   1.268       .  A
Ni721       O724   1.920       .  S
Ni721       O726   1.901       .  S
C722        O732   1.273       .  A
C722        C759   1.491       .  S
O723       Ni739   1.913       .  S
O723        C729   1.277       .  A
O724        C729   1.277       .  A
C725        C798   1.487       .  S
O726        C728   1.268       .  A
O727       Ni738   1.922       .  S
C728        O734   1.273       .  A
C728        C742   1.493       .  S
C729        C787   1.477       .  S
H730        O731   0.966       .  S
O731       Ni739   1.911       .  S
O731       Ni733   1.901       .  S
O731       Ni738   1.902       .  S
O732       Ni733   1.925       .  S
Ni733       O737   1.908       .  S
Ni733       O735   1.918       .  S
O734       Ni739   1.935       .  S
C736        O737   1.268       .  A
C736        C773   1.482       .  S
C741        C742   1.407       .  A
C741        C746   1.402       .  A
C741        H748   1.084       .  S
C742        C743   1.413       .  A
C743        C744   1.407       .  A
C743        N750   1.432       .  S
C744        C745   1.410       .  A
C744        H749   1.083       .  S
C745        C746   1.414       .  A
C746        N747   1.432       .  S
N747        H751   1.045       .  S
N747        H752   1.046       .  S
N750        H753   1.046       .  S
N750        H754   1.046       .  S
C755        C756   1.407       .  A
C755        C760   1.410       .  A
C755        H762   1.083       .  S
C756        C757   1.418       .  A
C757        C758   1.401       .  A
C757        N764   1.433       .  S
C758        C759   1.403       .  A
C758        H763   1.084       .  S
C759        C760   1.418       .  A
C760        N761   1.438       .  S
N761        H765   1.046       .  S
N761        H766   1.046       .  S
N764        H767   1.046       .  S
N764        H768   1.046       .  S
C769        C770   1.408       .  A
C769        C774   1.407       .  A
C769        H776   1.083       .  S
C770        C771   1.413       .  A
C771        C772   1.400       .  A
C771        N778   1.433       .  S
C772        C773   1.404       .  A
C772        H777   1.084       .  S
C773        C774   1.413       .  A
C774        N775   1.438       .  S
N775        H779   1.046       .  S
N775        H780   1.045       .  S
N778        H781   1.046       .  S
N778        H782   1.046       .  S
C783        C784   1.403       .  A
C783        C788   1.401       .  A
C783        H790   1.084       .  S
C784        C785   1.414       .  A
C785        C786   1.397       .  A
C785        N792   1.433       .  S
C786        C787   1.403       .  A
C786        H791   1.084       .  S
C787        C788   1.414       .  A
C788        N789   1.439       .  S
N789        H793   1.046       .  S
N789        H794   1.046       .  S
N792        H795   1.046       .  S
N792        H796   1.045       .  S
C797        C798   1.406       .  A
C797        C802   1.402       .  A
C797        H804   1.084       .  S
C798        C799   1.412       .  A
C799        C800   1.404       .  A
C799        N806   1.432       .  S
C800        C801   1.406       .  A
C800        H805   1.084       .  S
C801        C802   1.413       .  A
C802        N803   1.433       .  S
N803        H807   1.046       .  S
N803        H808   1.046       .  S
N806        H809   1.046       .  S
N806        H810   1.046       .  S
C811        C812   1.402       .  A
C811        C816   1.405       .  A
C811        H818   1.084       .  S
C812        C813   1.411       .  A
C813        C814   1.398       .  A
C813        N820   1.432       .  S
C814        C815   1.404       .  A
C814        H819   1.084       .  S
C815        C816   1.412       .  A
C816        N817   1.438       .  S
N817        H821   1.046       .  S
N817        H822   1.046       .  S
N820        H823   1.046       .  S
N820        H824   1.045       .  S
C825        C826   1.408   1_556  A
C825        C830   1.401       .  A
C825        H832   1.083       .  S
C826        C827   1.414       .  A
C827        C828   1.401       .  A
C827        N834   1.432       .  S
C828        C829   1.403       .  A
C828        H833   1.084       .  S
C829        C830   1.406   1_554  A
C830        N831   1.432       .  S
N831        H835   1.046       .  S
N831        H836   1.045       .  S
N834        H837   1.046       .  S
N834        H838   1.046       .  S
C839        C840   1.409       .  A
C839        C844   1.405       .  A
C839        H846   1.083       .  S
C840        C841   1.420   1_554  A
C841        C842   1.399       .  A
C841        N848   1.432       .  S
C842        C843   1.401   1_556  A
C842        H847   1.084       .  S
C843        C844   1.409       .  A
C844        N845   1.438       .  S
N845        H849   1.046       .  S
N845        H850   1.046       .  S
N848        H851   1.045       .  S
N848        H852   1.045       .  S
C853        C854   1.405       .  A
C853        C858   1.397       .  A
C853        H860   1.084       .  S
C854        C855   1.418   1_556  A
C855        C856   1.405       .  A
C855        N862   1.438       .  S
C856        C857   1.403   1_554  A
C856        H861   1.084       .  S
C857        C858   1.418       .  A
C858        N859   1.433       .  S
N859        H863   1.046       .  S
N859        H864   1.044       .  S
N862        H865   1.046       .  S
N862        H866   1.046       .  S
C867        C868   1.401       .  A
C867        C872   1.404       .  A
C867        H874   1.084       .  S
C868        C869   1.406   1_554  A
C869        C870   1.405       .  A
C869        N876   1.432       .  S
C870        C871   1.405       .  A
C870        H875   1.084       .  S
C871        C872   1.413   1_556  A
C872        N873   1.438       .  S
N873        H877   1.046       .  S
N873        H878   1.046       .  S
N876        H879   1.045       .  S
N876        H880   1.046       .  S
