geometry optimzed in LAMMPS
_audit_creation_date              2020-11-30 
_audit_creation_method            'lammps2cif' 
_symmetry_space_group_name_H-M    'P1' 
_symmetry_Int_Tables_number       1 
_symmetry_cell_setting            triclinic 
loop_ 
_symmetry_equiv_pos_as_xyz 
  x,y,z 
_cell_length_a                    44.45561873 
_cell_length_b                    29.863448355012036 
_cell_length_c                    32.40895977575513 
_cell_angle_alpha                 89.55336306080845 
_cell_angle_beta                  89.6582787428401 
_cell_angle_gamma                 89.1859443449918 
loop_ 
_atom_site_label 
_atom_site_type_symbol 
_atom_site_fract_x 
_atom_site_fract_y 
_atom_site_fract_z 
_atom_site_charge 
Zn1        Zn  0.63942177  0.33441239  0.34979464     1.49700
Zn2        Zn  0.58714022  0.39728259  0.39050174     1.49400
Zn3        Zn  0.64601865  0.44069915  0.34867551     1.49100
Zn4        Zn  0.59848662  0.39357298  0.29102365     1.49500
O5          O  0.61756359  0.39157443  0.34543115    -1.84300
O6          O  0.62817641  0.30274176  0.40239179    -0.74900
O7          O  0.59355529  0.45424215  0.42442269    -0.74800
O8          O  0.68913301  0.41812164  0.35410117    -0.74300
O9          O  0.59212997  0.34480154  0.43129387    -0.75000
O10         O  0.68455667  0.34415530  0.35030148    -0.74600
O11         O  0.63641125  0.47878580  0.39779135    -0.75100
O12         O  0.60987255  0.44852787  0.25774985    -0.74500
O13         O  0.54433532  0.39707867  0.36621233    -0.75300
O14         O  0.64277944  0.48149214  0.29831013    -0.74700
O15         O  0.55382994  0.39413698  0.29870598    -0.75100
O16         O  0.60679204  0.33801835  0.25741211    -0.75100
O17         O  0.62960771  0.29294086  0.30265483    -0.74800
C18         C  0.60947080  0.31032780  0.43148050     0.77000
C19         C  0.61515972  0.48200675  0.42415884     0.77400
C20         C  0.70075111  0.37889460  0.35316367     0.76400
C21         C  0.62751777  0.48070843  0.26509018     0.76800
C22         C  0.53535740  0.39495914  0.32886108     0.77900
C23         C  0.61756331  0.29985221  0.26758598     0.77000
C24         C  0.60856141  0.14122164  0.16151041    -0.02700
C25         C  0.68067278  0.14278722  0.09017217     0.86300
C26         C  0.66849983  0.18482459  0.06698275    -0.53900
C27         C  0.63832239  0.18497514  0.55995138     0.09200
C28         C  0.62249269  0.14300773  0.07698263     0.20200
C29         C  0.66156820  0.14102903  0.12956438    -0.54700
C30         C  0.63085498  0.14184726  0.12388127     0.09300
C31         C  0.66976924  0.10422389  0.06361594    -0.54200
C32         C  0.63984562  0.10399461  0.55671464     0.09900
H33         H  0.68203246  0.21093393  0.05346896     0.14400
H34         H  0.59832529  0.14246525  0.06935764     0.00200
H35         H  0.67177320  0.14052216  0.15971205     0.14700
H36         H  0.68522095  0.08133192  0.04803685     0.14500
Zn37       Zn  0.86767555  0.05919051  0.09449219     1.49700
Zn38       Zn  0.87315009  0.16417916  0.09012563     1.49400
Zn39       Zn  0.92435014  0.10585951  0.13726317     1.49100
Zn40       Zn  0.91783294  0.10732835  0.03744023     1.49500
O41         O  0.89615428  0.10865554  0.09004764    -1.84300
O42         O  0.82356648  0.08029087  0.09577096    -0.74900
O43         O  0.87990434  0.19646472  0.14189876    -0.74800
O44         O  0.91909066  0.04705458  0.17019670    -0.74300
O45         O  0.82914469  0.15351889  0.09038869    -0.75000
O46         O  0.87609103  0.02221606  0.14505280    -0.74600
O47         O  0.91295879  0.15603912  0.17782160    -0.75100
O48         O  0.96233180  0.11356547  0.04799705    -0.74500
O49         O  0.88144520  0.20433457  0.04164898    -0.75300
O50         O  0.96840486  0.11253977  0.11625073    -0.74700
O51         O  0.90728376  0.16034268  0.49932403    -0.75100
O52         O  0.90985861  0.04858129  0.50910757    -0.75100
O53         O  0.87459703  0.01625580  0.04792339    -0.74800
C54         C  0.81225835  0.11975437  0.09343182     0.77000
C55         C  0.89443291  0.18904991  0.17487606     0.77400
C56         C  0.89753850  0.01911439  0.17082751     0.76400
C57         C  0.97918592  0.11574309  0.07959032     0.76800
C58         C  0.89407361  0.19762218  0.50682566     0.77900
C59         C  0.89238122  0.01604742  0.51721704     0.77000
C60         C  0.90670935  0.36195344  0.40566930    -0.02700
C61         C  0.83201679  0.35909340  0.34065347     0.86300
C62         C  0.84164304  0.31195361  0.32667606    -0.53900
C63         C  0.87085222  0.30763099  0.31397632     0.09200
C64         C  0.88923843  0.35009559  0.32229900     0.20200
C65         C  0.85304204  0.36825604  0.37696529    -0.54700
C66         C  0.88344096  0.36238525  0.36899785     0.09300
C67         C  0.84295466  0.39118584  0.30692082    -0.54200
C68         C  0.87267125  0.38733902  0.29709274     0.09900
H69         H  0.82548906  0.28564132  0.32155268     0.14400
H70         H  0.91284615  0.34461421  0.31280431     0.00200
H71         H  0.84473269  0.37843107  0.40678084     0.14700
H72         H  0.82805288  0.41502733  0.29146661     0.14500
Zn73       Zn  0.41804449  0.13666816  0.14754094     1.49700
Zn74       Zn  0.37322649  0.08275971  0.09071393     1.49400
Zn75       Zn  0.37268854  0.18914883  0.08795171     1.49100
Zn76       Zn  0.42905171  0.13360769  0.04781345     1.49500
O77         O  0.39858309  0.13568492  0.09316107    -1.84300
O78         O  0.40935840  0.08073627  0.18113773    -0.74900
O79         O  0.32874966  0.09888769  0.08901431    -0.74800
O80         O  0.37795310  0.23060482  0.13632750    -0.74300
O81         O  0.38114971  0.04094610  0.13887721    -0.75000
O82         O  0.40641526  0.19237060  0.18044173    -0.74600
O83         O  0.32825561  0.17329724  0.08573826    -0.75100
O84         O  0.42263301  0.18703422  0.00874396    -0.74500
O85         O  0.38267886  0.04770557  0.03998401    -0.75300
O86         O  0.38307961  0.22312018  0.03597895    -0.74700
O87         O  0.42330273  0.07769200  0.01153549    -0.75100
O88         O  0.47202287  0.13461049  0.07202516    -0.75100
O89         O  0.46304503  0.13620860  0.13979498    -0.74800
C90         C  0.39553108  0.04500456  0.17245633     0.77000
C91         C  0.31451824  0.13612304  0.08668107     0.77400
C92         C  0.39109297  0.22743491  0.17106900     0.76400
C93         C  0.40301857  0.21865941  0.00788524     0.76800
C94         C  0.40291282  0.04788921  0.01208589     0.77900
C95         C  0.48127829  0.13517433  0.10934392     0.77000
C96         C  0.40799267  0.38371327  0.27794150    -0.02700
C97         C  0.33436259  0.38991189  0.34707880     0.86300
C98         C  0.34680102  0.43055435  0.36977951    -0.53900
C99         C  0.37665689  0.42783366  0.37875388     0.09200
C100        C  0.39222072  0.38512032  0.36196673     0.20200
C101        C  0.35421196  0.38657810  0.30781953    -0.54700
C102        C  0.38493861  0.38492139  0.31484312     0.09300
C103        C  0.34418176  0.34910765  0.37281876    -0.54200
C104        C  0.37417145  0.34613572  0.38057309     0.09900
H105        H  0.33250232  0.45750803  0.38138050     0.14400
H106        H  0.41622142  0.38231967  0.37041022     0.00200
H107        H  0.34536163  0.38691662  0.27679325     0.14700
H108        H  0.32831192  0.32510529  0.38526730     0.14500
Zn109      Zn  0.14315014  0.38162082  0.39534458     1.49700
Zn110      Zn  0.09182544  0.32690094  0.34680706     1.49400
Zn111      Zn  0.09109708  0.43405374  0.34229831     1.49100
Zn112      Zn  0.14290504  0.37787557  0.29732083     1.49500
O113        O  0.11719186  0.38019445  0.34604428    -1.84300
O114        O  0.13699905  0.32473050  0.43091977    -0.74900
O115        O  0.04828413  0.34439009  0.35766661    -0.74800
O116        O  0.10062308  0.47440796  0.38978424    -0.74300
O117        O  0.10400917  0.28635768  0.39420935    -0.75000
O118        O  0.13311078  0.43737741  0.42957281    -0.74600
O119        O  0.04698250  0.41859656  0.35066142    -0.75100
O120        O  0.13392075  0.42898356  0.25984993    -0.74500
O121        O  0.09599875  0.29066850  0.29355237    -0.75300
O122        O  0.09712992  0.46907537  0.28802737    -0.74700
O123        O  0.13599800  0.32269982  0.26491153    -0.75100
O124        O  0.18706675  0.38113528  0.30987668    -0.75100
O125        O  0.18773988  0.38555887  0.37794835    -0.74800
C126        C  0.12101805  0.28998973  0.42548826     0.77000
C127        C  0.03393153  0.38163436  0.35810813     0.77400
C128        C  0.11632781  0.47164701  0.42255607     0.76400
C129        C  0.11586437  0.46219136  0.25863192     0.76800
C130        C  0.11624774  0.29237918  0.26554895     0.77900
C131        C  0.20163544  0.38496383  0.34323846     0.77000
C132        C  0.10775796  0.12981727  0.03174524    -0.02700
C133        C  0.18263477  0.13384706  0.09639216     0.86300
C134        C  0.17269750  0.09432465  0.12351930    -0.53900
C135        C  0.14286731  0.09420204  0.13359193     0.09200
C136        C  0.12500492  0.13368458  0.11437760     0.20200
C137        C  0.16215533  0.13106978  0.05830405    -0.54700
C138        C  0.13160539  0.13059339  0.06699908     0.09300
C139        C  0.17110975  0.17592181  0.11834844    -0.54200
C140        C  0.14157423  0.17534770  0.12960870     0.09900
H141        H  0.18844530  0.06916041  0.13516491     0.14400
H142        H  0.10093207  0.13444902  0.12319567     0.00200
H143        H  0.17059642  0.12973492  0.02699684     0.14700
H144        H  0.18608766  0.20195423  0.12870074     0.14500
C145        C  0.14954504  0.19988396  0.20158084    -0.26500
C146        C  0.13167287  0.20191912  0.16595656    -0.14600
C147        C  0.10603952  0.23005290  0.16546706     0.36100
C148        C  0.09978493  0.25785698  0.19952630    -0.25900
C149        C  0.11877345  0.25734003  0.23403712    -0.15200
C150        C  0.14343287  0.22737033  0.23546324     0.37100
N151        N  0.16277799  0.22620658  0.27089183    -0.89400
H152        H  0.16874078  0.17717944  0.20265590     0.18300
H153        H  0.08096046  0.28126134  0.19821935     0.18200
N154        N  0.08713702  0.23184459  0.12992142    -0.88500
H155        H  0.18021297  0.20272854  0.26687106     0.35600
H156        H  0.15001231  0.21515374  0.29607572     0.40700
H157        H  0.08668862  0.26480940  0.11880147     0.40300
H158        H  0.06533116  0.22363472  0.13920781     0.35200
C159        C  0.10734352  0.03798534  0.22770500    -0.26500
C160        C  0.11814818  0.49409845  0.22313776    -0.14600
C161        C  0.13302171  0.48233503  0.18566184     0.36100
C162        C  0.13883902  0.01485821  0.15611267    -0.25900
C163        C  0.13065217  0.05976389  0.16240329    -0.15200
C164        C  0.11349337  0.07097296  0.19765737     0.37100
N165        N  0.10340083  0.11605817  0.20415074    -0.89400
H166        H  0.09546358  0.04773117  0.25558363     0.18300
H167        H  0.15102106  0.00547377  0.12833720     0.18200
N168        N  0.14271798  0.43748729  0.17655064    -0.88500
H169        H  0.11204427  0.12685707  0.23224792     0.35600
H170        H  0.07994659  0.11603930  0.20665036     0.40700
H171        H  0.12458083  0.41594408  0.18058979     0.40300
H172        H  0.16031877  0.42811967  0.19613744     0.35200
C173        C  0.13228474  0.21046877  0.44093730    -0.26500
C174        C  0.12210758  0.25201029  0.45534685    -0.14600
C175        C  0.11161028  0.25473723  0.99678857     0.36100
C176        C  0.10946581  0.21546915  0.02095982    -0.25900
C177        C  0.11530527  0.17238984  0.00464976    -0.15200
C178        C  0.13033373  0.17144966  0.46523978     0.37100
N179        N  0.14530985  0.13186337  0.45045283    -0.89400
H180        H  0.14213298  0.20824387  0.41031098     0.18300
H181        H  0.10084099  0.21829897  0.05208082     0.18200
N182        N  0.10104933  0.29611592  0.01446885    -0.88500
H183        H  0.16815014  0.13882947  0.44671401     0.35600
H184        H  0.13667100  0.12430192  0.42141780     0.40700
H185        H  0.10228255  0.32296359  0.49333040     0.40300
H186        H  0.11508295  0.30340879  0.03923730     0.35200
C187        C  0.09341590  0.04418310  0.44464440    -0.26500
C188        C  0.11419466  0.00941604  0.45268344    -0.14600
C189        C  0.13239117  0.51242188  0.98872119     0.36100
C190        C  0.12980988  0.05042734  0.01408948    -0.25900
C191        C  0.10980508  0.08647884  0.00502457    -0.15200
C192        C  0.09097291  0.08195245  0.46980174     0.37100
N193        N  0.07011563  0.11678015  0.45824494    -0.89400
H194        H  0.07895439  0.04274633  0.41790908     0.21100
H195        H  0.14340553  0.05098595  0.04154373     0.18200
N196        N  0.15361938  0.47734096  0.99887773    -0.88500
H197        H  0.04859111  0.10319745  0.45749161     0.35600
H198        H  0.07556665  0.12777696  0.42843147     0.40700
H199        H  0.14131449  0.44920329  0.00758975     0.40300
H200        H  0.16633937  0.48594318  0.02460048     0.35200
C201        C  0.28431756  0.38840510  0.30626206    -0.26500
C202        C  0.29971206  0.39194166  0.34396035    -0.14600
C203        C  0.28216294  0.39521512  0.38059594     0.36100
C204        C  0.25070010  0.39367074  0.37915198    -0.25900
C205        C  0.23531012  0.38875897  0.34189201    -0.15200
C206        C  0.25249816  0.38705323  0.30472350     0.37100
N207        N  0.23784941  0.38338089  0.26546602    -0.89400
H208        H  0.29673784  0.38609593  0.27767045     0.18300
H209        H  0.23828645  0.39571104  0.40795969     0.18200
N210        N  0.29631936  0.39925704  0.41999709    -0.88500
H211        H  0.25365168  0.38015227  0.24161350     0.35600
H212        H  0.22629305  0.41356370  0.25997420     0.40700
H213        H  0.28974365  0.37227358  0.43854717     0.40300
H214        H  0.28842758  0.42876708  0.43372941     0.35200
C215        C  0.23231846  0.13045368  0.05366087    -0.26500
C216        C  0.21724127  0.13438029  0.09197537    -0.14600
C217        C  0.23512659  0.13855910  0.12800610     0.36100
C218        C  0.26654448  0.14006107  0.12511253    -0.25900
C219        C  0.28124803  0.13611973  0.08718979    -0.15200
C220        C  0.26415323  0.13066176  0.05109810     0.37100
N221        N  0.27920691  0.12555505  0.01201722    -0.89400
H222        H  0.21969696  0.12655858  0.02562843     0.18300
H223        H  0.27962316  0.14359760  0.15300751     0.18200
N224        N  0.22140756  0.14098108  0.16808407    -0.88500
H225        H  0.26354269  0.12215086  0.98835210     0.35600
H226        H  0.29162812  0.09557729  0.01314718     0.40700
H227        H  0.22784574  0.17089630  0.18182585     0.40300
H228        H  0.22977677  0.11438957  0.18600331     0.35200
C229        C  0.40388496  0.32446786  0.44253250    -0.26500
C230        C  0.38689373  0.31093461  0.40849803    -0.14600
C231        C  0.37924159  0.26508286  0.40506285     0.36100
C232        C  0.38692164  0.23514303  0.43690214    -0.25900
C233        C  0.40155839  0.24939297  0.97213720    -0.15200
C234        C  0.41089224  0.29412250  0.97474925     0.37100
N235        N  0.42629829  0.30905931  0.01086784    -0.89400
H236        H  0.41026887  0.35898774  0.94513357     0.18300
H237        H  0.37998240  0.20057414  0.43484058     0.18200
N238        N  0.36375082  0.24747928  0.37002743    -0.88500
H239        H  0.43115090  0.34313529  0.00830703     0.35600
H240        H  0.44695656  0.29194542  0.01214002     0.40700
H241        H  0.36132036  0.27103480  0.34633896     0.40300
H242        H  0.34220722  0.23838128  0.37975485     0.35200
C243        C  0.41084709  0.52406976  0.43860028    -0.26500
C244        C  0.40131679  0.01348665  0.97904806    -0.14600
C245        C  0.38687813  0.47237705  0.98617026     0.36100
C246        C  0.38065951  0.44406679  0.45295845    -0.25900
C247        C  0.38875561  0.45562296  0.41249694    -0.15200
C248        C  0.40399484  0.49603257  0.40510392     0.37100
N249        N  0.41100716  0.50965579  0.36361113    -0.89400
H250        H  0.42156276  0.05570962  0.93268264     0.18300
H251        H  0.36831955  0.41350394  0.45838507     0.18200
N252        N  0.37760781  0.95953781  0.02741468    -0.88500
H253        H  0.42253364  0.53993272  0.36344918     0.35600
H254        H  0.39067689  0.51571773  0.34840315     0.40700
H255        H  0.39705817  0.95504066  0.04503117     0.40300
H256        H  0.36628488  0.42925177  0.02694996     0.35200
C257        C  0.38670358  0.46479484  0.26351170    -0.26500
C258        C  0.40489145  0.42775015  0.25102223    -0.14600
C259        C  0.42105901  0.43285491  0.21318766     0.36100
C260        C  0.41697676  0.47111010  0.18845284    -0.25900
C261        C  0.39804791  0.00606163  0.20052986    -0.15200
C262        C  0.38264862  0.00305794  0.23860218     0.37100
N263        N  0.36265527  0.03791862  0.25305257    -0.89400
H264        H  0.37538749  0.46498685  0.29299252     0.18300
H265        H  0.42919536  0.47357338  0.15946769     0.18200
N266        N  0.44132738  0.39878422  0.19884740    -0.88500
H267        H  0.34112746  0.02442093  0.25536261     0.35600
H268        H  0.36110165  0.06446649  0.23201617     0.40700
H269        H  0.46258666  0.41289762  0.19523150     0.40300
H270        H  0.43415327  0.38825931  0.16986601     0.35200
C271        C  0.38426394  0.34552222  0.21467801    -0.26500
C272        C  0.39916576  0.34094708  0.25303621    -0.14600
C273        C  0.40363031  0.29598281  0.26801539     0.36100
C274        C  0.39955471  0.25970363  0.24123843    -0.25900
C275        C  0.38959618  0.26581973  0.20053873    -0.15200
C276        C  0.37970526  0.30907114  0.18837463     0.37100
N277        N  0.36557388  0.31637931  0.14903319    -0.89400
H278        H  0.37602519  0.37788237  0.20441184     0.18300
H279        H  0.40526638  0.22629719  0.25220909     0.18200
N280        N  0.41396467  0.28530357  0.30898714    -0.88500
H281        H  0.36100758  0.35041975  0.14398253     0.35600
H282        H  0.34471715  0.30064391  0.15012364     0.40700
H283        H  0.41850911  0.31353375  0.32610369     0.40300
H284        H  0.43423346  0.26730455  0.30674779     0.35200
C285        C  0.94845450  0.39163477  0.35614535    -0.26500
C286        C  0.94024931  0.37181736  0.39412028    -0.14600
C287        C  0.96403828  0.36394743  0.42269314     0.36100
C288        C  0.99418145  0.36741352  0.40986287    -0.25900
C289        C  0.00173285  0.38173863  0.36993412    -0.15200
C290        C  0.97845741  0.39592466  0.34324086     0.37100
N291        N  0.98407189  0.41429733  0.30279532    -0.89400
H292        H  0.93163443  0.40456607  0.33589894     0.18300
H293        H  0.01191076  0.35872269  0.43144305     0.18200
N294        N  0.95792994  0.35106997  0.46453796    -0.88500
H295        H  0.97438747  0.39297284  0.28132294     0.35600
H296        H  0.00698067  0.41506006  0.29581889     0.40700
H297        H  0.96713679  0.37514188  0.48381883     0.40300
H298        H  0.96893134  0.32059282  0.47066406     0.35200
C299        C  0.90304085  0.45263542  0.27142181    -0.26500
C300        C  0.88525175  0.41533978  0.26282114    -0.14600
C301        C  0.87403256  0.41084439  0.22253188     0.36100
C302        C  0.87988054  0.44370083  0.19243410    -0.25900
C303        C  0.89636764  0.98219052  0.20207457    -0.15200
C304        C  0.90878597  0.98595436  0.24190867     0.37100
N305        N  0.92579717  0.02469071  0.25273554    -0.89400
H306        H  0.91073026  0.45847741  0.30213358     0.18300
H307        H  0.87027043  0.43989683  0.16202892     0.18200
N308        N  0.85532511  0.37392204  0.21255210    -0.88500
H309        H  0.93381702  0.02179659  0.28291884     0.35600
H310        H  0.91109189  0.05233269  0.25233783     0.40700
H311        H  0.86526161  0.35679539  0.18785350     0.40300
H312        H  0.83448707  0.38662625  0.20282695     0.35200
C313        C  0.85784014  0.27517703  0.24597346    -0.26500
C314        C  0.87797337  0.27624579  0.27910896    -0.14600
C315        C  0.90341133  0.24731017  0.27784949     0.36100
C316        C  0.90831978  0.21906056  0.24404333    -0.25900
C317        C  0.88841645  0.21890143  0.21063675    -0.15200
C318        C  0.86233123  0.24676037  0.21229154     0.37100
N319        N  0.83999476  0.24566559  0.18034922    -0.89400
H320        H  0.83816954  0.29673080  0.24628873     0.18300
H321        H  0.92812006  0.19747463  0.24377170     0.18200
N322        N  0.92468112  0.24551236  0.31038820    -0.88500
H323        H  0.82280802  0.26920450  0.18576321     0.35600
H324        H  0.82994359  0.21423308  0.18173060     0.40700
H325        H  0.91293530  0.24048775  0.33799930     0.40300
H326        H  0.93542551  0.27628478  0.31043689     0.35200
C327        C  0.89290646  0.98261700  0.44775791    -0.26500
C328        C  0.89319149  0.97637417  0.49035532    -0.14600
C329        C  0.89556795  0.43241978  0.50625315     0.36100
C330        C  0.89882699  0.39596141  0.47921564    -0.25900
C331        C  0.89909218  0.40162684  0.43567896    -0.15200
C332        C  0.89599034  0.44631310  0.42042916     0.37100
N333        N  0.89492562  0.95561767  0.37756189    -0.89400
H334        H  0.89090082  0.01623633  0.43509247     0.18300
H335        H  0.90284298  0.36347010  0.49300557     0.18200
N336        N  0.89572559  0.42543726  0.05055341    -0.88500
H337        H  0.91213925  0.97819539  0.37114152     0.35600
H338        H  0.87552108  0.47184105  0.36995956     0.40700
H339        H  0.91518739  0.43985207  0.06218991     0.40300
H340        H  0.89707756  0.39125901  0.05767651     0.35200
C341        C  0.91908815  0.23840963  0.44881427    -0.26500
C342        C  0.89458924  0.23460693  0.47574811    -0.14600
C343        C  0.87195089  0.26791809  0.47450833     0.36100
C344        C  0.87619910  0.30661145  0.45031432    -0.25900
C345        C  0.90267473  0.31411370  0.42657344    -0.15200
C346        C  0.92302193  0.27623637  0.42335541     0.37100
N347        N  0.94724628  0.27266071  0.39409480    -0.89400
H348        H  0.93582878  0.21168641  0.44772900     0.18300
H349        H  0.85932880  0.33257468  0.45305375     0.18200
N350        N  0.84481541  0.26277621  0.49840704    -0.88500
H351        H  0.96772022  0.27368215  0.40959219     0.35600
H352        H  0.94647202  0.29717279  0.37135012     0.40700
H353        H  0.83355230  0.23509098  0.48684444     0.40300
H354        H  0.83037269  0.29038611  0.49438980     0.35200
C355        C  0.05236934  0.16168217  0.03618920    -0.26500
C356        C  0.07441554  0.12977780  0.04924789    -0.14600
C357        C  0.06362691  0.09339548  0.07387776     0.36100
C358        C  0.03308440  0.09108264  0.08586950    -0.25900
C359        C  0.01192488  0.12293329  0.07243929    -0.15200
C360        C  0.02175360  0.15868586  0.04745785     0.37100
N361        N  0.00026053  0.19129360  0.03240155    -0.89400
H362        H  0.05790361  0.18757127  0.01429709     0.18300
H363        H  0.02558245  0.06261396  0.10393559     0.18200
N364        N  0.08323841  0.05697084  0.08509846    -0.88500
H365        H  0.01065180  0.21480484  0.51254268     0.35600
H366        H  0.99145516  0.20833350  0.05791779     0.40700
H367        H  0.07516889  0.02797563  0.07137009     0.40300
H368        H  0.08149120  0.05239637  0.11698639     0.35200
C369        C  0.73420028  0.17401955  0.08459944    -0.26500
C370        C  0.71504168  0.13910242  0.09710684    -0.14600
C371        C  0.72901295  0.09923435  0.11299512     0.36100
C372        C  0.76038185  0.09361224  0.11084138    -0.25900
C373        C  0.77898310  0.12716952  0.09483978    -0.15200
C374        C  0.76558817  0.16836729  0.08243087     0.37100
N375        N  0.78385038  0.20492822  0.56727293    -0.89400
H376        H  0.72537710  0.20668273  0.57579760     0.18300
H377        H  0.77031570  0.06264896  0.12236348     0.18200
N378        N  0.71237870  0.06389524  0.13233223    -0.88500
H379        H  0.77070597  0.23340116  0.56079130     0.35600
H380        H  0.79312535  0.19460654  0.53912661     0.40700
H381        H  0.69737539  0.04988192  0.11170753     0.40300
H382        H  0.70065798  0.07649746  0.15779807     0.35200
C383        C  0.55638051  0.10142940  0.15591150    -0.26500
C384        C  0.57526730  0.13780355  0.14538540    -0.14600
C385        C  0.56148969  0.17373481  0.12263785     0.36100
C386        C  0.53158229  0.17095505  0.10888232    -0.25900
C387        C  0.51389932  0.13405671  0.11861200    -0.15200
C388        C  0.52636462  0.09909491  0.14255546     0.37100
N389        N  0.50804721  0.06173333  0.15436499    -0.89400
H390        H  0.56367552  0.07565566  0.17703881     0.18300
H391        H  0.52168740  0.19892931  0.09203135     0.18200
N392        N  0.57739565  0.21421440  0.11451876    -0.88500
H393        H  0.52024284  0.03886906  0.17251815     0.35600
H394        H  0.50233832  0.04488117  0.12742516     0.40700
H395        H  0.56590838  0.24036451  0.12934369     0.40300
H396        H  0.57642336  0.22071636  0.08284836     0.35200
C397        C  0.74708124  0.35454780  0.31760200    -0.26500
C398        C  0.73386372  0.37351687  0.35254072    -0.14600
C399        C  0.75236801  0.38804499  0.38487286     0.36100
C400        C  0.78395030  0.38208599  0.38181743    -0.25900
C401        C  0.79756398  0.36347326  0.34620526    -0.15200
C402        C  0.77834381  0.35073474  0.31351078     0.37100
N403        N  0.79045567  0.33452070  0.27532823    -0.89400
H404        H  0.73298639  0.34406274  0.29234638     0.18300
H405        H  0.79752705  0.39355437  0.40694722     0.18200
N406        N  0.73903365  0.40802236  0.42094374    -0.88500
H407        H  0.78301457  0.35573048  0.25156233     0.35600
H408        H  0.78185000  0.30265295  0.27016490     0.40700
H409        H  0.72922234  0.43855582  0.41195808     0.40300
H410        H  0.75558650  0.41562404  0.44247356     0.35200
C411        C  0.60147360  0.01427306  0.49346430    -0.26500
C412        C  0.61670202  0.51800064  0.45576721    -0.14600
C413        C  0.63569124  0.55510513  0.44982001     0.36100
C414        C  0.64215132  0.08370896  0.48299549    -0.25900
C415        C  0.62832519  0.07763044  0.52156350    -0.15200
C416        C  0.60655734  0.04410214  0.52631000     0.37100
N417        N  0.59082717  0.03907675  0.56484080    -0.89400
H418        H  0.58603581  0.98689829  0.49792002     0.18300
H419        H  0.65812858  0.11047242  0.47864326     0.18200
N420        N  0.64970481  0.56354817  0.41064480    -0.88500
H421        H  0.57621853  0.01199073  0.56369070     0.35600
H422        H  0.57732642  0.06765151  0.56891619     0.40700
H423        H  0.67301263  0.56346598  0.41482899     0.40300
H424        H  0.64307765  0.59555542  0.40065720     0.35200
C425        C  0.61206880  0.20261687  0.49409473    -0.26500
C426        C  0.62433915  0.21799280  0.53102499    -0.14600
C427        C  0.62693504  0.26452272  0.53720211     0.36100
C428        C  0.61897568  0.29452561  0.50523719    -0.25900
C429        C  0.60934202  0.27884206  0.46689835    -0.15200
C430        C  0.60505024  0.23228968  0.46166673     0.37100
N431        N  0.59411436  0.21385504  0.42383117    -0.89400
H432        H  0.60965321  0.16702372  0.48932254     0.18300
H433        H  0.62233201  0.33010451  0.50923765     0.18200
N434        N  0.63894183  0.28080365  0.07546504    -0.88500
H435        H  0.61161448  0.19498543  0.41061335     0.35600
H436        H  0.58807225  0.23881036  0.40261274     0.40700
H437        H  0.62354288  0.27299436  0.09879365     0.40300
H438        H  0.64032236  0.31572065  0.07472020     0.35200
C439        C  0.63714658  0.06128659  0.25120045    -0.26500
C440        C  0.62878193  0.51958753  0.23598237    -0.14600
C441        C  0.62017551  0.51688403  0.19426748     0.36100
C442        C  0.61680889  0.05648890  0.17073362    -0.25900
C443        C  0.61927542  0.09954060  0.18826239    -0.15200
C444        C  0.63362433  0.10070498  0.22799647     0.37100
N445        N  0.64744464  0.13938057  0.24515739    -0.89400
H446        H  0.64620528  0.06366627  0.28208142     0.18300
H447        H  0.60984712  0.05392881  0.13899984     0.18200
N448        N  0.61430945  0.47415304  0.17611480    -0.88500
H449        H  0.63233598  0.15764002  0.26333458     0.35600
H450        H  0.65884835  0.15838581  0.22324119     0.40700
H451        H  0.63453701  0.45585708  0.17591123     0.40300
H452        H  0.60784637  0.47805686  0.14531077     0.35200
C453        C  0.62909498  0.22048730  0.17740716    -0.26500
C454        C  0.60919567  0.18523915  0.18756906    -0.14600
C455        C  0.58988188  0.19217981  0.22267035     0.36100
C456        C  0.59354830  0.22957019  0.24782480    -0.25900
C457        C  0.61483234  0.26217026  0.23875481    -0.15200
C458        C  0.63233047  0.25822532  0.20249890     0.37100
N459        N  0.65389270  0.29134369  0.19026174    -0.89400
H460        H  0.64291308  0.21927147  0.15002109     0.18300
H461        H  0.57941776  0.23321172  0.27502860     0.18200
N462        N  0.56689615  0.16161803  0.23504564    -0.88500
H463        H  0.67518307  0.27601349  0.19076644     0.35600
H464        H  0.65459180  0.31782331  0.21101707     0.40700
H465        H  0.57568372  0.12924436  0.23814178     0.40300
H466        H  0.54949222  0.16270912  0.21362292     0.35200
C467        C  0.49488566  0.35832868  0.29062190    -0.26500
C468        C  0.50296786  0.39085961  0.31905250    -0.14600
C469        C  0.48080081  0.42084818  0.33359672     0.36100
C470        C  0.45109993  0.41773221  0.31880323    -0.25900
C471        C  0.44185572  0.38325998  0.29210224    -0.15200
C472        C  0.46528405  0.35427058  0.27654759     0.37100
N473        N  0.46053191  0.32266337  0.24426887    -0.89400
H474        H  0.51212290  0.33611945  0.27812834     0.18300
H475        H  0.43469030  0.44243188  0.32850766     0.18200
N476        N  0.48872978  0.45561442  0.36176352    -0.88500
H477        H  0.47466530  0.33058157  0.21944216     0.35600
H478        H  0.46736764  0.29100153  0.25489581     0.40700
H479        H  0.49479382  0.44023194  0.38963348     0.40300
H480        H  0.47003965  0.47600619  0.36832224     0.35200
Zn481      Zn  0.63945553  0.33445747  0.84994329     1.49700
Zn482      Zn  0.58736437  0.39757084  0.89067483     1.49400
Zn483      Zn  0.64625613  0.44073622  0.84855500     1.49100
Zn484      Zn  0.59855701  0.39355011  0.79118010     1.49500
O485        O  0.61770541  0.39169208  0.84553468    -1.84300
O486        O  0.62829580  0.30298853  0.90261364    -0.74900
O487        O  0.59402202  0.45457216  0.92447938    -0.74800
O488        O  0.68933542  0.41791350  0.85378663    -0.74300
O489        O  0.59232869  0.34514893  0.93155766    -0.75000
O490        O  0.68461638  0.34394844  0.85025412    -0.74600
O491        O  0.63688930  0.47893858  0.89772704    -0.75100
O492        O  0.60979560  0.44857327  0.75788455    -0.74500
O493        O  0.54449424  0.39729002  0.86647538    -0.75300
O494        O  0.64292257  0.48148797  0.79814876    -0.74700
O495        O  0.55392002  0.39382725  0.79897325    -0.75100
O496        O  0.60690596  0.33800993  0.75756366    -0.75100
O497        O  0.62941875  0.29285781  0.80301797    -0.74800
C498        C  0.60963537  0.31063867  0.93173194     0.77000
C499        C  0.61569158  0.48223684  0.92417466     0.77400
C500        C  0.70087907  0.37863121  0.85295691     0.76400
C501        C  0.62751021  0.48071934  0.76505746     0.76800
C502        C  0.53547880  0.39481315  0.82915645     0.77900
C503        C  0.61749725  0.29977507  0.76787455     0.77000
C504        C  0.60865806  0.14115620  0.66168171    -0.02700
C505        C  0.68077367  0.14316205  0.59037944     0.86300
C506        C  0.66853337  0.18509627  0.56708916    -0.53900
C507        C  0.63828924  0.18486090  0.05989310     0.09200
C508        C  0.62260032  0.14308984  0.57712045     0.20200
C509        C  0.66164576  0.14141825  0.62974105    -0.54700
C510        C  0.63093739  0.14201415  0.62403147     0.09300
C511        C  0.66995985  0.10448443  0.56389728    -0.54200
C512        C  0.63964830  0.10385499  0.05651294     0.09900
H513        H  0.68203081  0.21124379  0.55356934     0.14400
H514        H  0.59843915  0.14243875  0.56948905     0.00200
H515        H  0.67183389  0.14103642  0.65989673     0.14700
H516        H  0.68547434  0.08163301  0.54838264     0.14500
Zn517      Zn  0.86774540  0.05951836  0.59478292     1.49700
Zn518      Zn  0.87333787  0.16458520  0.59023985     1.49400
Zn519      Zn  0.92451864  0.10604199  0.63730337     1.49100
Zn520      Zn  0.91780608  0.10755306  0.53745238     1.49500
O521        O  0.89624200  0.10893473  0.59017050    -1.84300
O522        O  0.82366226  0.08083622  0.59621997    -0.74900
O523        O  0.88041972  0.19703449  0.64181277    -0.74800
O524        O  0.91930904  0.04722864  0.67033580    -0.74300
O525        O  0.82930020  0.15407726  0.59097830    -0.75000
O526        O  0.87622266  0.02250668  0.64536497    -0.74600
O527        O  0.91324242  0.15626646  0.67783153    -0.75100
O528        O  0.96230641  0.11370736  0.54784161    -0.74500
O529        O  0.88144648  0.20458928  0.54153403    -0.75300
O530        O  0.96851391  0.11275232  0.61607464    -0.74700
O531        O  0.90727735  0.16015151  0.99935854    -0.75100
O532        O  0.90997376  0.04829809  0.00909093    -0.75100
O533        O  0.87458960  0.01654545  0.54814182    -0.74800
C534        C  0.81238766  0.12033802  0.59402458     0.77000
C535        C  0.89489313  0.18948259  0.67481002     0.77400
C536        C  0.89773077  0.01932811  0.67104444     0.76400
C537        C  0.97921854  0.11592958  0.57936870     0.76800
C538        C  0.89408435  0.19742927  0.00694167     0.77900
C539        C  0.89247429  0.01575501  0.01710430     0.77000
C540        C  0.90672855  0.36193586  0.90611249    -0.02700
C541        C  0.83217659  0.35872827  0.84082722     0.86300
C542        C  0.84196647  0.31166639  0.82682994    -0.53900
C543        C  0.87121740  0.30755830  0.81419597     0.09200
C544        C  0.88945771  0.35013058  0.82264041     0.20200
C545        C  0.85311663  0.36795343  0.87721202    -0.54700
C546        C  0.88354081  0.36227743  0.86934073     0.09300
C547        C  0.84308140  0.39092315  0.80715168    -0.54200
C548        C  0.87282013  0.38726416  0.79739909     0.09900
H549        H  0.82588898  0.28527575  0.82160209     0.14400
H550        H  0.91309923  0.34488401  0.81322475     0.00200
H551        H  0.84473695  0.37802478  0.90701681     0.14700
H552        H  0.82813788  0.41467543  0.79165857     0.14500
Zn553      Zn  0.41790992  0.13664298  0.64764976     1.49700
Zn554      Zn  0.37323922  0.08273566  0.59051206     1.49400
Zn555      Zn  0.37270744  0.18916352  0.58787134     1.49100
Zn556      Zn  0.42918637  0.13363910  0.54792826     1.49500
O557        O  0.39859313  0.13567857  0.59314201    -1.84300
O558        O  0.40898776  0.08084645  0.68126341    -0.74900
O559        O  0.32874981  0.09883914  0.58843613    -0.74800
O560        O  0.37785733  0.23065187  0.63629765    -0.74300
O561        O  0.38100160  0.04096728  0.63878723    -0.75000
O562        O  0.40629985  0.19243229  0.68044534    -0.74600
O563        O  0.32828618  0.17325824  0.58536848    -0.75100
O564        O  0.42290581  0.18723550  0.50893613    -0.74500
O565        O  0.38287595  0.04767990  0.53983828    -0.75300
O566        O  0.38323659  0.22320009  0.53599275    -0.74700
O567        O  0.42347061  0.07778451  0.51143705    -0.75100
O568        O  0.47209258  0.13446929  0.57246555    -0.75100
O569        O  0.46296708  0.13592564  0.64020494    -0.74800
C570        C  0.39522225  0.04509170  0.67249441     0.77000
C571        C  0.31453338  0.13609015  0.58610877     0.77400
C572        C  0.39099637  0.22750637  0.67104477     0.76400
C573        C  0.40326362  0.21883075  0.50800606     0.76800
C574        C  0.40311213  0.04792343  0.51194432     0.77900
C575        C  0.48127321  0.13490392  0.60983026     0.77000
C576        C  0.40815811  0.38375472  0.77798284    -0.02700
C577        C  0.33448398  0.39009247  0.84714264     0.86300
C578        C  0.34699374  0.43067168  0.86984169    -0.53900
C579        C  0.37684806  0.42783864  0.87877787     0.09200
C580        C  0.39234688  0.38509673  0.86196483     0.20200
C581        C  0.35431925  0.38670293  0.80784221    -0.54700
C582        C  0.38505843  0.38494852  0.81485072     0.09300
C583        C  0.34425425  0.34925324  0.87283808    -0.54200
C584        C  0.37423843  0.34616795  0.88055339     0.09900
H585        H  0.33274112  0.45765915  0.88148331     0.14400
H586        H  0.41634956  0.38222836  0.87038989     0.00200
H587        H  0.34545175  0.38708714  0.77682138     0.14700
H588        H  0.32835219  0.32530278  0.88529465     0.14500
Zn589      Zn  0.14324951  0.38153255  0.89581868     1.49700
Zn590      Zn  0.09201878  0.32678224  0.84709115     1.49400
Zn591      Zn  0.09105044  0.43395854  0.84283714     1.49100
Zn592      Zn  0.14297490  0.37833099  0.79774551     1.49500
O593        O  0.11727929  0.38021919  0.84648038    -1.84300
O594        O  0.13707820  0.32458925  0.93131208    -0.74900
O595        O  0.04841538  0.34401480  0.85810337    -0.74800
O596        O  0.10058547  0.47413983  0.89036635    -0.74300
O597        O  0.10427517  0.28610895  0.89438551    -0.75000
O598        O  0.13317079  0.43723685  0.93011537    -0.74600
O599        O  0.04700799  0.41824527  0.85136624    -0.75100
O600        O  0.13380008  0.42958159  0.76042020    -0.74500
O601        O  0.09628401  0.29080522  0.79366500    -0.75300
O602        O  0.09684840  0.46931086  0.78861770    -0.74700
O603        O  0.13623077  0.32315448  0.76518325    -0.75100
O604        O  0.18712092  0.38179569  0.81037530    -0.75100
O605        O  0.18787934  0.38549294  0.87848765    -0.74800
C606        C  0.12119010  0.28977845  0.92575805     0.77000
C607        C  0.03401292  0.38121913  0.85871741     0.77400
C608        C  0.11631833  0.47143759  0.92311043     0.76400
C609        C  0.11561261  0.46264353  0.75921542     0.76800
C610        C  0.11654843  0.29272228  0.76568725     0.77900
C611        C  0.20173459  0.38526710  0.84374015     0.77000
C612        C  0.10776027  0.12998917  0.53149429    -0.02700
C613        C  0.18263296  0.13444548  0.59609325     0.86300
C614        C  0.17271347  0.09527393  0.62365333    -0.53900
C615        C  0.14288841  0.09524246  0.63374265     0.09200
C616        C  0.12501313  0.13448885  0.61416688     0.20200
C617        C  0.16213504  0.13120917  0.55806723    -0.54700
C618        C  0.13159530  0.13086799  0.56678433     0.09300
C619        C  0.17111831  0.17680013  0.61761590    -0.54200
C620        C  0.14159714  0.17631955  0.62902809     0.09900
H621        H  0.18846110  0.07021388  0.63548798     0.14400
H622        H  0.10094206  0.13533274  0.62300739     0.00200
H623        H  0.17054972  0.12958826  0.52675656     0.14700
H624        H  0.18612594  0.20290810  0.62772501     0.14500
C625        C  0.15011255  0.20111685  0.70083439    -0.26500
C626        C  0.13188887  0.20284496  0.66553357    -0.14600
C627        C  0.10597089  0.23040357  0.66560492     0.36100
C628        C  0.09977995  0.25798610  0.69985618    -0.25900
C629        C  0.11913552  0.25785378  0.73398907    -0.15200
C630        C  0.14409801  0.22842246  0.73486583     0.37100
N631        N  0.16380843  0.22756065  0.76991518    -0.89400
H632        H  0.16948295  0.17874640  0.70157444     0.18300
H633        H  0.08069386  0.28093633  0.69898032     0.18200
N634        N  0.08667028  0.23179515  0.63044992    -0.88500
H635        H  0.18146917  0.20457040  0.76545549     0.35600
H636        H  0.15142460  0.21603161  0.79528624     0.40700
H637        H  0.08572221  0.26477039  0.61940779     0.40300
H638        H  0.06506664  0.22300317  0.64017039     0.35200
C639        C  0.10739274  0.03901170  0.72791436    -0.26500
C640        C  0.11777783  0.49457326  0.72368742    -0.14600
C641        C  0.13250789  0.48271983  0.68613554     0.36100
C642        C  0.13879756  0.01597804  0.65622867    -0.25900
C643        C  0.13066614  0.06087650  0.66260795    -0.15200
C644        C  0.11361414  0.07208819  0.69795844     0.37100
N645        N  0.10376129  0.11725245  0.70466408    -0.89400
H646        H  0.09555126  0.04871184  0.75583748     0.18300
H647        H  0.15095229  0.00662906  0.62842063     0.18200
N648        N  0.14186117  0.43775563  0.67687462    -0.88500
H649        H  0.11257435  0.12785344  0.73272782     0.35600
H650        H  0.08031505  0.11747971  0.70734193     0.40700
H651        H  0.12359484  0.41648263  0.68105186     0.40300
H652        H  0.15950035  0.42807573  0.69627140     0.35200
C653        C  0.13241305  0.21023593  0.94122353    -0.26500
C654        C  0.12224931  0.25179453  0.95561376    -0.14600
C655        C  0.11146928  0.25493239  0.49652090     0.36100
C656        C  0.10939763  0.21566026  0.52071735    -0.25900
C657        C  0.11528242  0.17257949  0.50439630    -0.15200
C658        C  0.13042774  0.17123379  0.96554117     0.37100
N659        N  0.14547332  0.13165714  0.95085437    -0.89400
H660        H  0.14230069  0.20799283  0.91062250     0.18300
H661        H  0.10077675  0.21848160  0.55185698     0.18200
N662        N  0.10081654  0.29628208  0.51416167    -0.88500
H663        H  0.16831464  0.13866264  0.94720412     0.35600
H664        H  0.13690379  0.12403409  0.92179436     0.40700
H665        H  0.10257751  0.32280561  0.99368785     0.40300
H666        H  0.11482789  0.30368373  0.53890268     0.35200
C667        C  0.09345979  0.04424233  0.94480380    -0.26500
C668        C  0.11435826  0.00959123  0.95269449    -0.14600
C669        C  0.13252088  0.51256816  0.48815718     0.36100
C670        C  0.12970571  0.05043710  0.51399148    -0.25900
C671        C  0.10979321  0.08657081  0.50480748    -0.15200
C672        C  0.09095332  0.08190320  0.97006151     0.37100
N673        N  0.06999562  0.11666504  0.95867060    -0.89400
H674        H  0.07895687  0.04280486  0.91811108     0.21100
H675        H  0.14328235  0.05103736  0.54146525     0.18200
N676        N  0.15403535  0.47774402  0.49791787    -0.88500
H677        H  0.04850534  0.10297274  0.95792477     0.35600
H678        H  0.07538544  0.12781247  0.92888030     0.40700
H679        H  0.14197011  0.44939444  0.50669080     0.40300
H680        H  0.16687506  0.48642142  0.52350152     0.35200
C681        C  0.28437109  0.38868156  0.80653356    -0.26500
C682        C  0.29982827  0.39221691  0.84416702    -0.14600
C683        C  0.28234191  0.39548403  0.88087279     0.36100
C684        C  0.25086838  0.39399541  0.87953208    -0.25900
C685        C  0.23541468  0.38907237  0.84232116    -0.15200
C686        C  0.25255102  0.38729316  0.80510551     0.37100
N687        N  0.23785048  0.38342261  0.76590688    -0.89400
H688        H  0.29675426  0.38634771  0.77791112     0.18300
H689        H  0.23849841  0.39605368  0.90837481     0.18200
N690        N  0.29657369  0.39941206  0.92023640    -0.88500
H691        H  0.25361976  0.37998103  0.74203698     0.35600
H692        H  0.22633937  0.41361196  0.76027861     0.40700
H693        H  0.29000525  0.37240338  0.93875949     0.40300
H694        H  0.28873532  0.42890691  0.93405113     0.35200
C695        C  0.23226744  0.13012046  0.55331540    -0.26500
C696        C  0.21724046  0.13483344  0.59159301    -0.14600
C697        C  0.23518568  0.13950648  0.62750633     0.36100
C698        C  0.26660010  0.14086679  0.62450111    -0.25900
C699        C  0.28125706  0.13614897  0.58662340    -0.15200
C700        C  0.26410379  0.13005825  0.55067342     0.37100
N701        N  0.27908938  0.12404360  0.51165583    -0.89400
H702        H  0.21960540  0.12574404  0.52538627     0.18300
H703        H  0.27971874  0.14484594  0.65230369     0.18200
N704        N  0.22154201  0.14252194  0.66759257    -0.88500
H705        H  0.26337941  0.12031437  0.48809181     0.35600
H706        H  0.29138061  0.09397524  0.51326395     0.40700
H707        H  0.22805804  0.17260062  0.68096129     0.40300
H708        H  0.22990443  0.11614880  0.68578721     0.35200
C709        C  0.40390546  0.32429668  0.94247166    -0.26500
C710        C  0.38688343  0.31088688  0.90842828    -0.14600
C711        C  0.37906446  0.26510294  0.90498096     0.36100
C712        C  0.38662779  0.23510365  0.93681797    -0.25900
C713        C  0.40180066  0.24954329  0.47222579    -0.15200
C714        C  0.41096950  0.29435676  0.47482872     0.37100
N715        N  0.42629480  0.30944461  0.51095750    -0.89400
H716        H  0.41014729  0.35920218  0.44517478     0.18300
H717        H  0.37957393  0.20058924  0.93474941     0.18200
N718        N  0.36349479  0.24764272  0.86994818    -0.88500
H719        H  0.43099913  0.34356867  0.50840144     0.35600
H720        H  0.44702476  0.29252686  0.51224382     0.40700
H721        H  0.36121331  0.27118597  0.84622352     0.40300
H722        H  0.34189286  0.23882378  0.87966307     0.35200
C723        C  0.41119312  0.52393436  0.93855269    -0.26500
C724        C  0.40153610  0.01350907  0.47887955    -0.14600
C725        C  0.38662913  0.47239336  0.48619044     0.36100
C726        C  0.38088529  0.44403692  0.95296724    -0.25900
C727        C  0.38900096  0.45555847  0.91250462    -0.15200
C728        C  0.40429015  0.49591364  0.90508161     0.37100
N729        N  0.41126233  0.50953380  0.86357809    -0.89400
H730        H  0.42197337  0.05559066  0.43256444     0.18300
H731        H  0.36849795  0.41351942  0.95840888     0.18200
N732        N  0.37764094  0.95965004  0.52716301    -0.88500
H733        H  0.42284626  0.53976099  0.86339489     0.35600
H734        H  0.39091685  0.51569102  0.84843734     0.40700
H735        H  0.39705567  0.95503689  0.54482770     0.40300
H736        H  0.36610725  0.42914923  0.52692787     0.35200
C737        C  0.38692732  0.46488982  0.76369184    -0.26500
C738        C  0.40514813  0.42788723  0.75118402    -0.14600
C739        C  0.42149845  0.43318247  0.71352296     0.36100
C740        C  0.41744468  0.47149355  0.68884691    -0.25900
C741        C  0.39774149  0.00615149  0.70056323    -0.15200
C742        C  0.38257166  0.00326824  0.73881755     0.37100
N743        N  0.36274875  0.03824192  0.75346566    -0.89400
H744        H  0.37554501  0.46500689  0.79312174     0.18300
H745        H  0.42976539  0.47408728  0.65995280     0.18200
N746        N  0.44195900  0.39928269  0.69933833    -0.88500
H747        H  0.34120384  0.02485647  0.75604921     0.35600
H748        H  0.36112383  0.06476850  0.73241498     0.40700
H749        H  0.46319530  0.41354549  0.69601763     0.40300
H750        H  0.43500137  0.38879234  0.67024397     0.35200
C751        C  0.38460161  0.34573892  0.71447275    -0.26500
C752        C  0.39933145  0.34106830  0.75295464    -0.14600
C753        C  0.40362555  0.29607248  0.76795766     0.36100
C754        C  0.39946067  0.25980557  0.74119738    -0.25900
C755        C  0.38956924  0.26594382  0.70047448    -0.15200
C756        C  0.37987984  0.30926629  0.68823134     0.37100
N757        N  0.36574906  0.31660053  0.64889447    -0.89400
H758        H  0.37655789  0.37816447  0.70410287     0.18300
H759        H  0.40503928  0.22636800  0.75221231     0.18200
N760        N  0.41387524  0.28532344  0.80895643    -0.88500
H761        H  0.36129953  0.35066563  0.64379130     0.35600
H762        H  0.34483504  0.30103601  0.65004526     0.40700
H763        H  0.41852705  0.31350799  0.82607312     0.40300
H764        H  0.43407372  0.26713936  0.80676436     0.35200
C765        C  0.94854465  0.39176300  0.85685657    -0.26500
C766        C  0.94029102  0.37181106  0.89473444    -0.14600
C767        C  0.96406159  0.36365960  0.92328950     0.36100
C768        C  0.99422068  0.36688356  0.91043968    -0.25900
C769        C  0.00180494  0.38124674  0.87053029    -0.15200
C770        C  0.97855934  0.39570651  0.84389542     0.37100
N771        N  0.98421529  0.41394362  0.80341068    -0.89400
H772        H  0.93174364  0.40491049  0.83667616     0.18300
H773        H  0.01192978  0.35799985  0.93198919     0.18200
N774        N  0.95791838  0.35069821  0.96510614    -0.88500
H775        H  0.97430562  0.39276612  0.78200999     0.35600
H776        H  0.00711392  0.41425974  0.79631319     0.40700
H777        H  0.96723160  0.37461851  0.98444872     0.40300
H778        H  0.96880365  0.32010956  0.97114521     0.35200
C779        C  0.90293305  0.45282670  0.77187138    -0.26500
C780        C  0.88537420  0.41533640  0.76315138    -0.14600
C781        C  0.87426416  0.41072707  0.72284305     0.36100
C782        C  0.88002733  0.44361776  0.69278308    -0.25900
C783        C  0.89663149  0.98229680  0.70220508    -0.15200
C784        C  0.90891671  0.98604894  0.74211419     0.37100
N785        N  0.92568529  0.02495069  0.75315495    -0.89400
H786        H  0.91039139  0.45835223  0.80271789     0.18300
H787        H  0.87058400  0.43961837  0.66230040     0.18200
N788        N  0.85574769  0.37361748  0.71278866    -0.88500
H789        H  0.93362608  0.02204814  0.78337801     0.35600
H790        H  0.91083827  0.05242537  0.75274588     0.40700
H791        H  0.86580418  0.35659517  0.68811695     0.40300
H792        H  0.83487104  0.38611414  0.70300049     0.35200
C793        C  0.85825071  0.27526323  0.74613364    -0.26500
C794        C  0.87844862  0.27641315  0.77918884    -0.14600
C795        C  0.90407545  0.24785622  0.77765801     0.36100
C796        C  0.90898758  0.21969846  0.74379291    -0.25900
C797        C  0.88895860  0.21937306  0.71053889    -0.15200
C798        C  0.86280475  0.24706541  0.71232739     0.37100
N799        N  0.84046934  0.24603840  0.68037907    -0.89400
H800        H  0.83848656  0.29661384  0.74658517     0.18300
H801        H  0.92888021  0.19830542  0.74335541     0.18200
N802        N  0.92549108  0.24624729  0.81001957    -0.88500
H803        H  0.82326149  0.26952754  0.68585414     0.35600
H804        H  0.83044942  0.21458087  0.68165367     0.40700
H805        H  0.91387473  0.24088299  0.83766999     0.40300
H806        H  0.93606048  0.27716488  0.81013948     0.35200
C807        C  0.89349564  0.98245041  0.94764074    -0.26500
C808        C  0.89332085  0.97610357  0.99021788    -0.14600
C809        C  0.89563594  0.43253854  0.00659214     0.36100
C810        C  0.89887714  0.39602460  0.97961010    -0.25900
C811        C  0.89900291  0.40160516  0.93606557    -0.15200
C812        C  0.89566616  0.44623541  0.92075238     0.37100
N813        N  0.89596097  0.95560564  0.87744683    -0.89400
H814        H  0.89179979  0.01611511  0.93500421     0.18300
H815        H  0.90294840  0.36355855  0.99342776     0.18200
N816        N  0.89561697  0.42521576  0.55020297    -0.88500
H817        H  0.91337539  0.97794056  0.87133439     0.35600
H818        H  0.87467085  0.47141549  0.87056168     0.40700
H819        H  0.91506455  0.43961815  0.56190216     0.40300
H820        H  0.89697970  0.39102584  0.55726598     0.35200
C821        C  0.91911603  0.23834536  0.94905402    -0.26500
C822        C  0.89461408  0.23448749  0.97596383    -0.14600
C823        C  0.87197989  0.26781070  0.97480875     0.36100
C824        C  0.87624648  0.30658453  0.95074597    -0.25900
C825        C  0.90270316  0.31409880  0.92698515    -0.15200
C826        C  0.92303577  0.27621177  0.92365790     0.37100
N827        N  0.94724196  0.27268311  0.89436540    -0.89400
H828        H  0.93585675  0.21162461  0.94791951     0.18300
H829        H  0.85939362  0.33256579  0.95356552     0.18200
N830        N  0.84482933  0.26259125  0.99865867    -0.88500
H831        H  0.96772933  0.27361256  0.90982374     0.35600
H832        H  0.94645316  0.29724818  0.87165505     0.40700
H833        H  0.83357890  0.23494062  0.98701162     0.40300
H834        H  0.83038388  0.29021036  0.99468717     0.35200
C835        C  0.05234748  0.16171038  0.53561754    -0.26500
C836        C  0.07442597  0.13000265  0.54897005    -0.14600
C837        C  0.06368045  0.09381193  0.57385997     0.36100
C838        C  0.03313995  0.09151350  0.58584319    -0.25900
C839        C  0.01193740  0.12313138  0.57209162    -0.15200
C840        C  0.02171854  0.15865654  0.54678729     0.37100
N841        N  0.00017345  0.19095106  0.53130603    -0.89400
H842        H  0.05788206  0.18744108  0.51355740     0.18300
H843        H  0.02567598  0.06321341  0.60416614     0.18200
N844        N  0.08334440  0.05757684  0.58541088    -0.88500
H845        H  0.01075570  0.21527896  0.01380825     0.35600
H846        H  0.99123115  0.20821626  0.55660168     0.40700
H847        H  0.07534070  0.02841181  0.57190807     0.40300
H848        H  0.08155501  0.05330627  0.61732528     0.35200
C849        C  0.73429679  0.17448986  0.58480588    -0.26500
C850        C  0.71514538  0.13959219  0.59739942    -0.14600
C851        C  0.72913015  0.09983025  0.61350375     0.36100
C852        C  0.76050861  0.09427920  0.61151929    -0.25900
C853        C  0.77911272  0.12779941  0.59546983    -0.15200
C854        C  0.76570604  0.16891925  0.58285764     0.37100
N855        N  0.78372289  0.20439405  0.06685965    -0.89400
H856        H  0.72530374  0.20630699  0.07584719     0.18300
H857        H  0.77044670  0.06337768  0.62317537     0.18200
N858        N  0.71249669  0.06449634  0.63285031    -0.88500
H859        H  0.77059231  0.23292592  0.06055019     0.35600
H860        H  0.79289650  0.19415970  0.03862455     0.40700
H861        H  0.69756867  0.05036934  0.61218898     0.40300
H862        H  0.70070159  0.07712005  0.65824150     0.35200
C863        C  0.55646048  0.10135584  0.65647238    -0.26500
C864        C  0.57534219  0.13765084  0.64567175    -0.14600
C865        C  0.56152764  0.17346317  0.62282767     0.36100
C866        C  0.53160316  0.17060318  0.60916002    -0.25900
C867        C  0.51389546  0.13382041  0.61919729    -0.15200
C868        C  0.52637700  0.09903500  0.64336002     0.37100
N869        N  0.50803051  0.06186848  0.65561187    -0.89400
H870        H  0.56382852  0.07568141  0.67766753     0.18300
H871        H  0.52170851  0.19845765  0.59214302     0.18200
N872        N  0.57742288  0.21390139  0.61448699    -0.88500
H873        H  0.52023815  0.03916133  0.67391342     0.35600
H874        H  0.50221609  0.04474499  0.62886418     0.40700
H875        H  0.56595920  0.24012665  0.62923321     0.40300
H876        H  0.57639576  0.22024734  0.58279418     0.35200
C877        C  0.74725522  0.35418074  0.81749280    -0.26500
C878        C  0.73398513  0.37311720  0.85241211    -0.14600
C879        C  0.75243546  0.38746856  0.88486650     0.36100
C880        C  0.78401804  0.38147285  0.88191449    -0.25900
C881        C  0.79769984  0.36295288  0.84630609    -0.15200
C882        C  0.77852937  0.35026876  0.81353400     0.37100
N883        N  0.79070429  0.33403247  0.77540003    -0.89400
H884        H  0.73319918  0.34378967  0.79216239     0.18300
H885        H  0.79753988  0.39285824  0.90712988     0.18200
N886        N  0.73904078  0.40732504  0.92095459    -0.88500
H887        H  0.78334519  0.35527112  0.75160755     0.35600
H888        H  0.78206832  0.30219284  0.77019240     0.40700
H889        H  0.72925399  0.43789668  0.91203284     0.40300
H890        H  0.75555499  0.41483360  0.94257038     0.35200
C891        C  0.60153237  0.01353143  0.99371589    -0.26500
C892        C  0.61733864  0.51818047  0.95584703    -0.14600
C893        C  0.63659931  0.55502786  0.95016444     0.36100
C894        C  0.64149355  0.08381121  0.98271393    -0.25900
C895        C  0.62802234  0.07742532  0.02147017    -0.15200
C896        C  0.60660853  0.04344124  0.02650935     0.37100
N897        N  0.59124630  0.03806837  0.06527308    -0.89400
H898        H  0.58639494  0.98582241  0.99838336     0.18300
H899        H  0.65721974  0.11086932  0.97817217     0.18200
N900        N  0.65107073  0.56317678  0.91124987    -0.88500
H901        H  0.57679829  0.01078123  0.06428694     0.35600
H902        H  0.57761758  0.06645812  0.06965144     0.40700
H903        H  0.67433159  0.56281928  0.91590054     0.40300
H904        H  0.64473088  0.59523384  0.90105708     0.35200
C905        C  0.61212599  0.20278704  0.99408323    -0.26500
C906        C  0.62436676  0.21802175  0.03107200    -0.14600
C907        C  0.62704683  0.26452454  0.03736028     0.36100
C908        C  0.61911408  0.29464515  0.00547390    -0.25900
C909        C  0.60947200  0.27909185  0.96709212    -0.15200
C910        C  0.60518346  0.23255977  0.96171834     0.37100
N911        N  0.59436050  0.21423259  0.92377523    -0.89400
H912        H  0.60968142  0.16721838  0.98921280     0.18300
H913        H  0.62251107  0.33020227  0.00956025     0.18200
N914        N  0.63875635  0.28095445  0.57529263    -0.88500
H915        H  0.61193706  0.19553551  0.91053801     0.35600
H916        H  0.58827022  0.23923992  0.90263516     0.40700
H917        H  0.62335979  0.27310367  0.59861194     0.40300
H918        H  0.64004038  0.31588182  0.57448801     0.35200
C919        C  0.63740602  0.06091653  0.75102202    -0.26500
C920        C  0.62869184  0.51956746  0.73590048    -0.14600
C921        C  0.61991421  0.51682406  0.69426056     0.36100
C922        C  0.61698951  0.05638532  0.67056990    -0.25900
C923        C  0.61947427  0.09938074  0.68823488    -0.15200
C924        C  0.63386825  0.10040924  0.72793556     0.37100
N925        N  0.64761065  0.13906618  0.74525179    -0.89400
H926        H  0.64647057  0.06320757  0.78190564     0.18300
H927        H  0.60996389  0.05393553  0.63884478     0.18200
N928        N  0.61386341  0.47409234  0.67623125    -0.88500
H929        H  0.63253899  0.15687036  0.76387583     0.35600
H930        H  0.65871749  0.15851723  0.72338793     0.40700
H931        H  0.63404852  0.45569760  0.67586551     0.40300
H932        H  0.60724555  0.47797075  0.64548654     0.35200
C933        C  0.62889946  0.22060341  0.67753067    -0.26500
C934        C  0.60923652  0.18511263  0.68785373    -0.14600
C935        C  0.59009823  0.19179181  0.72317691     0.36100
C936        C  0.59375156  0.22916370  0.74836893    -0.25900
C937        C  0.61478538  0.26205734  0.73907091    -0.15200
C938        C  0.63207270  0.25836524  0.70260516     0.37100
N939        N  0.65337644  0.29175907  0.69013532    -0.89400
H940        H  0.64255758  0.21958999  0.64998755     0.18300
H941        H  0.57976778  0.23260286  0.77573622     0.18200
N942        N  0.56726752  0.16103815  0.73568857    -0.88500
H943        H  0.67474545  0.27666705  0.69031527     0.35600
H944        H  0.65410833  0.31819984  0.71092502     0.40700
H945        H  0.57615645  0.12871390  0.73865502     0.40300
H946        H  0.54977158  0.16206794  0.71440780     0.35200
C947        C  0.49496897  0.35787811  0.79117604    -0.26500
C948        C  0.50308066  0.39060604  0.81941238    -0.14600
C949        C  0.48096817  0.42086975  0.83361402     0.36100
C950        C  0.45127344  0.41773434  0.81881876    -0.25900
C951        C  0.44200364  0.38317168  0.79224477    -0.15200
C952        C  0.46540000  0.35399133  0.77689740     0.37100
N953        N  0.46067723  0.32246804  0.74453719    -0.89400
H954        H  0.51218125  0.33549841  0.77887495     0.18300
H955        H  0.43489301  0.44254730  0.82835559     0.18200
N956        N  0.48896633  0.45596908  0.86138401    -0.88500
H957        H  0.47489465  0.33038312  0.71979995     0.35600
H958        H  0.46741301  0.29075187  0.75514167     0.40700
H959        H  0.49489972  0.44093545  0.88946345     0.40300
H960        H  0.47034917  0.47663645  0.86759159     0.35200
Zn961      Zn  0.63925924  0.83453775  0.35008139     1.49700
Zn962      Zn  0.58715026  0.89770655  0.39069887     1.49400
Zn963      Zn  0.64615249  0.94067286  0.34861246     1.49100
Zn964      Zn  0.59836636  0.89357192  0.29127340     1.49500
O965        O  0.61751615  0.89174973  0.34560524    -1.84300
O966        O  0.62813605  0.80323186  0.40278672    -0.74900
O967        O  0.59384978  0.95476294  0.42436433    -0.74800
O968        O  0.68922188  0.91780111  0.35382806    -0.74300
O969        O  0.59216535  0.84540614  0.43170752    -0.75000
O970        O  0.68440366  0.84386373  0.35038357    -0.74600
O971        O  0.63685674  0.97881946  0.39777802    -0.75100
O972        O  0.60957186  0.94869952  0.25808567    -0.74500
O973        O  0.54424846  0.89733619  0.36651661    -0.75300
O974        O  0.64279762  0.98149133  0.29829685    -0.74700
O975        O  0.55369056  0.89374854  0.29902806    -0.75100
O976        O  0.60687953  0.83803020  0.25766042    -0.75100
O977        O  0.62926512  0.79287478  0.30323440    -0.74800
C978        C  0.60949869  0.81092485  0.43191552     0.77000
C979        C  0.61561535  0.98226015  0.42413683     0.77400
C980        C  0.70071392  0.87848753  0.35305639     0.76400
C981        C  0.62731958  0.98080822  0.26526487     0.76800
C982        C  0.53523463  0.89477332  0.32919901     0.77900
C983        C  0.61744896  0.79979128  0.26802659     0.77000
C984        C  0.60859680  0.64128762  0.16168664    -0.02700
C985        C  0.68074617  0.64326577  0.09045898     0.86300
C986        C  0.66852612  0.68523260  0.06722364    -0.53900
C987        C  0.63817162  0.68505799  0.55995612     0.09200
C988        C  0.62258705  0.64322938  0.07713944     0.20200
C989        C  0.66160336  0.64149336  0.12980294    -0.54700
C990        C  0.63089713  0.64211170  0.12406313     0.09300
C991        C  0.66993656  0.60461155  0.06392555    -0.54200
C992        C  0.63955190  0.60404548  0.55636713     0.09900
H993        H  0.68201351  0.71140665  0.05374054     0.14400
H994        H  0.59843744  0.64258407  0.06945339     0.00200
H995        H  0.67178204  0.64108942  0.15995676     0.14700
H996        H  0.68545090  0.58172449  0.04845584     0.14500
Zn997      Zn  0.86770280  0.55950282  0.09436215     1.49700
Zn998      Zn  0.87329494  0.66446235  0.08994919     1.49400
Zn999      Zn  0.92442081  0.60600152  0.13712003     1.49100
Zn1000     Zn  0.91793598  0.60745242  0.03731551     1.49500
O1001       O  0.89622564  0.60887488  0.08992529    -1.84300
O1002       O  0.82360274  0.58076293  0.09572986    -0.74900
O1003       O  0.88014452  0.69685173  0.14165274    -0.74800
O1004       O  0.91909109  0.54722152  0.17011917    -0.74300
O1005       O  0.82923531  0.65399361  0.09034855    -0.75000
O1006       O  0.87613891  0.52235637  0.14482603    -0.74600
O1007       O  0.91311172  0.65626231  0.17759934    -0.75100
O1008       O  0.96237034  0.61371300  0.04778431    -0.74500
O1009       O  0.88173105  0.70442916  0.04138221    -0.75300
O1010       O  0.96846890  0.61259663  0.11602562    -0.74700
O1011       O  0.90698369  0.66024560  0.49926161    -0.75100
O1012       O  0.90989959  0.54850501  0.50884324    -0.75100
O1013       O  0.87466757  0.51658274  0.04779025    -0.74800
C1014       C  0.81232371  0.62025476  0.09345475     0.77000
C1015       C  0.89466575  0.68936709  0.17462662     0.77400
C1016       C  0.89758774  0.51919537  0.17059584     0.76400
C1017       C  0.97922988  0.61585491  0.07935716     0.76800
C1018       C  0.89383274  0.69752722  0.50693663     0.77900
C1019       C  0.89254766  0.51581703  0.51692444     0.77000
C1020       C  0.90656133  0.86202503  0.40613287    -0.02700
C1021       C  0.83199001  0.85852901  0.34087019     0.86300
C1022       C  0.84185795  0.81151803  0.32681102    -0.53900
C1023       C  0.87108592  0.80756009  0.31405241     0.09200
C1024       C  0.88926635  0.85019364  0.32259096     0.20200
C1025       C  0.85293560  0.86779783  0.37723682    -0.54700
C1026       C  0.88336446  0.86226606  0.36933813     0.09300
C1027       C  0.84280464  0.89081146  0.30721114    -0.54200
C1028       C  0.87254773  0.88729790  0.29742958     0.09900
H1029       H  0.82583724  0.78503439  0.32165854     0.14400
H1030       H  0.91290422  0.84508203  0.31312283     0.00200
H1031       H  0.84454502  0.87780421  0.40705100     0.14700
H1032       H  0.82780231  0.91451360  0.29176039     0.14500
Zn1033     Zn  0.41790590  0.63666635  0.14744717     1.49700
Zn1034     Zn  0.37327851  0.58273919  0.09044547     1.49400
Zn1035     Zn  0.37263760  0.68905582  0.08759844     1.49100
Zn1036     Zn  0.42918737  0.63364061  0.04778151     1.49500
O1037       O  0.39859026  0.63567981  0.09298100    -1.84300
O1038       O  0.40902037  0.58082937  0.18113075    -0.74900
O1039       O  0.32880383  0.59867973  0.08859891    -0.74800
O1040       O  0.37780340  0.73066466  0.13593795    -0.74300
O1041       O  0.38111516  0.54090770  0.13860098    -0.75000
O1042       O  0.40623079  0.69246854  0.18013632    -0.74600
O1043       O  0.32823712  0.67307909  0.08523004    -0.75100
O1044       O  0.42284530  0.68703747  0.00868140    -0.74500
O1045       O  0.38283545  0.54783282  0.03973963    -0.75300
O1046       O  0.38306598  0.72287642  0.03557777    -0.74700
O1047       O  0.42352798  0.57775223  0.01143322    -0.75100
O1048       O  0.47210558  0.63467614  0.07219758    -0.75100
O1049       O  0.46295682  0.63611170  0.13992757    -0.74800
C1050       C  0.39529750  0.54503874  0.17233006     0.77000
C1051       C  0.31454095  0.63587361  0.08617612     0.77400
C1052       C  0.39092263  0.72752849  0.17070375     0.76400
C1053       C  0.40312673  0.71850859  0.00763678     0.76800
C1054       C  0.40311294  0.54798704  0.01191053     0.77900
C1055       C  0.48127368  0.63514990  0.10956245     0.77000
C1056       C  0.40789444  0.88357040  0.27795478    -0.02700
C1057       C  0.33426040  0.89001977  0.34716801     0.86300
C1058       C  0.34678229  0.93063122  0.36982901    -0.53900
C1059       C  0.37664814  0.92781362  0.37874204     0.09200
C1060       C  0.39212505  0.88502840  0.36195738     0.20200
C1061       C  0.35408029  0.88656722  0.30786082    -0.54700
C1062       C  0.38481410  0.88482089  0.31484294     0.09300
C1063       C  0.34403194  0.84922229  0.37291210    -0.54200
C1064       C  0.37401911  0.84612496  0.38060390     0.09900
H1065       H  0.33253137  0.95762472  0.38146006     0.14400
H1066       H  0.41612885  0.88214718  0.37036530     0.00200
H1067       H  0.34521118  0.88689903  0.27684281     0.14700
H1068       H  0.32812625  0.82529863  0.38540472     0.14500
Zn1069     Zn  0.14297975  0.88129317  0.39558341     1.49700
Zn1070     Zn  0.09169440  0.82652630  0.34680496     1.49400
Zn1071     Zn  0.09100153  0.93367384  0.34249146     1.49100
Zn1072     Zn  0.14286256  0.87758668  0.29757249     1.49500
O1073       O  0.11708675  0.87984071  0.34622236    -1.84300
O1074       O  0.13669215  0.82437880  0.43102637    -0.74900
O1075       O  0.04814738  0.84394542  0.35794579    -0.74800
O1076       O  0.10053078  0.97414443  0.38991112    -0.74300
O1077       O  0.10394595  0.78581799  0.39405022    -0.75000
O1078       O  0.13292432  0.93710960  0.42982764    -0.74600
O1079       O  0.04692141  0.91816710  0.35109837    -0.75100
O1080       O  0.13386170  0.92863479  0.25997820    -0.74500
O1081       O  0.09582719  0.79050087  0.29339383    -0.75300
O1082       O  0.09699278  0.96861189  0.28812520    -0.74700
O1083       O  0.13610364  0.82230614  0.26527623    -0.75100
O1084       O  0.18697684  0.88103834  0.31023894    -0.75100
O1085       O  0.18763429  0.88520539  0.37832356    -0.74800
C1086       C  0.12082985  0.78954509  0.42544977     0.77000
C1087       C  0.03384088  0.88122994  0.35855820     0.77400
C1088       C  0.11618591  0.97141694  0.42272931     0.76400
C1089       C  0.11574492  0.96177711  0.25873284     0.76800
C1090       C  0.11627061  0.79210060  0.26564905     0.77900
C1091       C  0.20153676  0.88478759  0.34361228     0.77000
C1092       C  0.10777961  0.62998207  0.03164073    -0.02700
C1093       C  0.18271028  0.63392814  0.09610202     0.86300
C1094       C  0.17273563  0.59445207  0.12323904    -0.53900
C1095       C  0.14292894  0.59447948  0.13341282     0.09200
C1096       C  0.12510581  0.63399230  0.11422066     0.20200
C1097       C  0.16218471  0.63124100  0.05806219    -0.54700
C1098       C  0.13164992  0.63085569  0.06683664     0.09300
C1099       C  0.17129877  0.67603596  0.11808275    -0.54200
C1100       C  0.14176797  0.67557149  0.12941231     0.09900
H1101       H  0.18845001  0.56921514  0.13483841     0.14400
H1102       H  0.10104585  0.63483135  0.12310471     0.00200
H1103       H  0.17057333  0.62981863  0.02672982     0.14700
H1104       H  0.18635662  0.70197355  0.12842112     0.14500
C1105       C  0.15014093  0.70055461  0.20113680    -0.26500
C1106       C  0.13193809  0.70207594  0.16582266    -0.14600
C1107       C  0.10590640  0.72938782  0.16579707     0.36100
C1108       C  0.09956543  0.75695576  0.19999686    -0.25900
C1109       C  0.11892502  0.75709982  0.23411628    -0.15200
C1110       C  0.14401383  0.72791066  0.23507647     0.37100
N1111       N  0.16375425  0.72739881  0.27009564    -0.89400
H1112       H  0.16960550  0.67836150  0.20193428     0.18300
H1113       H  0.08039543  0.77974560  0.19905342     0.18200
N1114       N  0.08668034  0.73062444  0.13056100    -0.88500
H1115       H  0.18148510  0.70450772  0.26572585     0.35600
H1116       H  0.15143100  0.71593926  0.29554871     0.40700
H1117       H  0.08566803  0.76358722  0.11949011     0.40300
H1118       H  0.06508093  0.72170912  0.14019107     0.35200
C1119       C  0.10746735  0.53838184  0.22761294    -0.26500
C1120       C  0.11798987  0.99368915  0.22321977    -0.14600
C1121       C  0.13275222  0.98189081  0.18567573     0.36100
C1122       C  0.13892575  0.51523949  0.15599942    -0.25900
C1123       C  0.13072295  0.56012711  0.16227941    -0.15200
C1124       C  0.11368104  0.57139508  0.19762215     0.37100
N1125       N  0.10386316  0.61657349  0.20432290    -0.89400
H1126       H  0.09559425  0.54812643  0.25549798     0.18300
H1127       H  0.15110639  0.50585278  0.12822258     0.18200
N1128       N  0.14199062  0.93689842  0.17631906    -0.88500
H1129       H  0.11269757  0.62716816  0.23237472     0.35600
H1130       H  0.08041707  0.61684583  0.20701710     0.40700
H1131       H  0.12365040  0.91574571  0.18038752     0.40300
H1132       H  0.15955404  0.92702839  0.19577097     0.35200
C1133       C  0.13207901  0.71003445  0.44093472    -0.26500
C1134       C  0.12191420  0.75159334  0.45531720    -0.14600
C1135       C  0.11146072  0.75487740  0.99653376     0.36100
C1136       C  0.10943947  0.71563103  0.02077554    -0.25900
C1137       C  0.11525761  0.67253167  0.00446951    -0.15200
C1138       C  0.13023962  0.67109046  0.46534593     0.37100
N1139       N  0.14531696  0.63153394  0.45067578    -0.89400
H1140       H  0.14187910  0.70775497  0.41028368     0.18300
H1141       H  0.10092884  0.71849191  0.05196548     0.18200
N1142       N  0.10098810  0.79627155  0.01427599    -0.88500
H1143       H  0.16813333  0.63862396  0.44689752     0.35600
H1144       H  0.13668671  0.62380194  0.42167283     0.40700
H1145       H  0.10224015  0.82265657  0.49334340     0.40300
H1146       H  0.11512293  0.80357987  0.03890099     0.35200
C1147       C  0.09334488  0.54409992  0.44479532    -0.26500
C1148       C  0.11430931  0.50952551  0.45259641    -0.14600
C1149       C  0.13247418  0.01254162  0.98834817     0.36100
C1150       C  0.12979898  0.55046807  0.01427748    -0.25900
C1151       C  0.10983244  0.58653470  0.00506150    -0.15200
C1152       C  0.09083881  0.58175913  0.47005666     0.37100
N1153       N  0.06984924  0.61647733  0.45867477    -0.89400
H1154       H  0.07879846  0.54261835  0.41815014     0.21100
H1155       H  0.14339311  0.55111335  0.04173058     0.18200
N1156       N  0.15381187  0.97754175  0.99830158    -0.88500
H1157       H  0.04836680  0.60274627  0.45796495     0.35600
H1158       H  0.07520848  0.62761882  0.42887577     0.40700
H1159       H  0.14159612  0.94930035  0.00697769     0.40300
H1160       H  0.16656445  0.98611466  0.02399656     0.35200
C1161       C  0.28417521  0.88850338  0.30650175    -0.26500
C1162       C  0.29960550  0.89210072  0.34415402    -0.14600
C1163       C  0.28209228  0.89537704  0.38083189     0.36100
C1164       C  0.25062355  0.89376491  0.37945705    -0.25900
C1165       C  0.23520492  0.88873467  0.34223404    -0.15200
C1166       C  0.25236099  0.88706315  0.30503262     0.37100
N1167       N  0.23768477  0.88332937  0.26580170    -0.89400
H1168       H  0.29656916  0.88619829  0.27788872     0.18300
H1169       H  0.23823084  0.89580957  0.40828205     0.18200
N1170       N  0.29629238  0.89942641  0.42020334    -0.88500
H1171       H  0.25346855  0.88005952  0.24192980     0.35600
H1172       H  0.22612949  0.91350735  0.26028770     0.40700
H1173       H  0.28974787  0.87243326  0.43876327     0.40300
H1174       H  0.28840290  0.92892519  0.43395835     0.35200
C1175       C  0.23231203  0.63068185  0.05325719    -0.26500
C1176       C  0.21729892  0.63430103  0.09163571    -0.14600
C1177       C  0.23523058  0.63805102  0.12766925     0.36100
C1178       C  0.26664276  0.63939593  0.12472164    -0.25900
C1179       C  0.28128360  0.63580459  0.08672908    -0.15200
C1180       C  0.26413795  0.63077455  0.05062461     0.37100
N1181       N  0.27912651  0.62595656  0.01146876    -0.89400
H1182       H  0.21964719  0.62715934  0.02521624     0.18300
H1183       H  0.27976516  0.64260799  0.15261680     0.18200
N1184       N  0.22156734  0.64020437  0.16779656    -0.88500
H1185       H  0.26341900  0.62293400  0.98780144     0.35600
H1186       H  0.29143145  0.59586808  0.01231493     0.40700
H1187       H  0.22811978  0.66994244  0.18175429     0.40300
H1188       H  0.22988000  0.61339721  0.18549352     0.35200
C1189       C  0.40386607  0.82415073  0.44235868    -0.26500
C1190       C  0.38666636  0.81081296  0.40845360    -0.14600
C1191       C  0.37864917  0.76509171  0.40515906     0.36100
C1192       C  0.38608688  0.73514999  0.43708651    -0.25900
C1193       C  0.40171462  0.74919641  0.97186621    -0.15200
C1194       C  0.41101602  0.79393430  0.97450556     0.37100
N1195       N  0.42635941  0.80888914  0.01066914    -0.89400
H1196       H  0.41031455  0.85882565  0.94495586     0.18300
H1197       H  0.37886403  0.70070492  0.43515443     0.18200
N1198       N  0.36302922  0.74763190  0.37016942    -0.88500
H1199       H  0.43119465  0.84297095  0.00812684     0.35600
H1200       H  0.44702461  0.79179897  0.01200692     0.40700
H1201       H  0.36087151  0.77109551  0.34635593     0.40300
H1202       H  0.34138353  0.73904428  0.37988082     0.35200
C1203       C  0.41106347  0.02395824  0.43848667    -0.26500
C1204       C  0.40154283  0.51355760  0.97889975    -0.14600
C1205       C  0.38685323  0.97216438  0.98638576     0.36100
C1206       C  0.38086617  0.94397426  0.45294197    -0.25900
C1207       C  0.38884190  0.95557076  0.41244592    -0.15200
C1208       C  0.40413041  0.99593419  0.40501180     0.37100
N1209       N  0.41113443  0.00951421  0.36350645    -0.89400
H1210       H  0.42214233  0.55553976  0.93264675     0.18300
H1211       H  0.36853981  0.91340814  0.45841627     0.18200
N1212       N  0.37728507  0.45996791  0.02710736    -0.88500
H1213       H  0.42274390  0.03971749  0.36331633     0.35600
H1214       H  0.39080536  0.01567511  0.34832326     0.40700
H1215       H  0.39658556  0.45538005  0.04501287     0.40300
H1216       H  0.36672323  0.92872663  0.02731408     0.35200
C1217       C  0.38667079  0.96468954  0.26349755    -0.26500
C1218       C  0.40492503  0.92767595  0.25111354    -0.14600
C1219       C  0.42131737  0.93287689  0.21347295     0.36100
C1220       C  0.41734701  0.97117455  0.18875220    -0.25900
C1221       C  0.39779350  0.50606783  0.20038269    -0.15200
C1222       C  0.38256321  0.50312455  0.23859033     0.37100
N1223       N  0.36261063  0.53798608  0.25313950    -0.89400
H1224       H  0.37521723  0.96484464  0.29287802     0.18300
H1225       H  0.42971452  0.97370714  0.15989147     0.18200
N1226       N  0.44171106  0.89886153  0.19933498    -0.88500
H1227       H  0.34111051  0.52444359  0.25570433     0.35600
H1228       H  0.36091236  0.56444539  0.23202391     0.40700
H1229       H  0.46298131  0.91301326  0.19601581     0.40300
H1230       H  0.43474073  0.88837118  0.17024646     0.35200
C1231       C  0.38435073  0.84565887  0.21434490    -0.26500
C1232       C  0.39903317  0.84091811  0.25286757    -0.14600
C1233       C  0.40328052  0.79589614  0.26780306     0.36100
C1234       C  0.39917881  0.75969112  0.24094890    -0.25900
C1235       C  0.38943056  0.76592435  0.20016833    -0.15200
C1236       C  0.37978106  0.80926971  0.18794835     0.37100
N1237       N  0.36589600  0.81672766  0.14846160    -0.89400
H1238       H  0.37628891  0.87809164  0.20401933     0.18300
H1239       H  0.40471178  0.72622674  0.25193533     0.18200
N1240       N  0.41342056  0.78506496  0.30883338    -0.88500
H1241       H  0.36148246  0.85080995  0.14339794     0.35600
H1242       H  0.34497572  0.80116884  0.14931522     0.40700
H1243       H  0.41808087  0.81322398  0.32598042     0.40300
H1244       H  0.43360081  0.76682344  0.30670950     0.35200
C1245       C  0.94837513  0.89185574  0.35688332    -0.26500
C1246       C  0.94014042  0.87186063  0.39474352    -0.14600
C1247       C  0.96393461  0.86370387  0.42326463     0.36100
C1248       C  0.99408965  0.86701733  0.41039565    -0.25900
C1249       C  0.00164932  0.88144069  0.37049245    -0.15200
C1250       C  0.97838140  0.89594817  0.34392155     0.37100
N1251       N  0.98400320  0.91441714  0.30351627    -0.89400
H1252       H  0.93155395  0.90496079  0.33674447     0.18300
H1253       H  0.01181519  0.85810985  0.43191212     0.18200
N1254       N  0.95782822  0.85063228  0.46506020    -0.88500
H1255       H  0.97420449  0.89324650  0.28201207     0.35600
H1256       H  0.00690194  0.91501108  0.29646321     0.40700
H1257       H  0.96712165  0.87453370  0.48444144     0.40300
H1258       H  0.96875410  0.82005863  0.47102787     0.35200
C1259       C  0.90289293  0.95262607  0.27185967    -0.26500
C1260       C  0.88506039  0.91541266  0.26318855    -0.14600
C1261       C  0.87383389  0.91098356  0.22292729     0.36100
C1262       C  0.87975292  0.94381312  0.19286810    -0.25900
C1263       C  0.89651158  0.48206344  0.20161105    -0.15200
C1264       C  0.90894279  0.48568200  0.24133892     0.37100
N1265       N  0.92595251  0.52415448  0.25224657    -0.89400
H1266       H  0.91039985  0.95809117  0.30269075     0.18300
H1267       H  0.87019873  0.93997682  0.16243225     0.18200
N1268       N  0.85506319  0.87412882  0.21292882    -0.88500
H1269       H  0.94709709  0.51305170  0.26232808     0.35600
H1270       H  0.91509062  0.53992364  0.27700468     0.40700
H1271       H  0.86496942  0.85697554  0.18822292     0.40300
H1272       H  0.83424616  0.88691637  0.20320814     0.35200
C1273       C  0.85793563  0.77495770  0.24609051    -0.26500
C1274       C  0.87830525  0.77646346  0.27895668    -0.14600
C1275       C  0.90406149  0.74817232  0.27722772     0.36100
C1276       C  0.90894873  0.71998361  0.24337596    -0.25900
C1277       C  0.88872145  0.71924011  0.21037078    -0.15200
C1278       C  0.86240172  0.74654559  0.21239347     0.37100
N1279       N  0.83981383  0.74486649  0.18081580    -0.89400
H1280       H  0.83809858  0.79614832  0.24662266     0.18300
H1281       H  0.92896234  0.69884994  0.24277411     0.18200
N1282       N  0.92560123  0.74676007  0.30943673    -0.88500
H1283       H  0.82242446  0.76800029  0.18648560     0.35600
H1284       H  0.83012192  0.71318665  0.18237640     0.40700
H1285       H  0.91409063  0.74120468  0.33714764     0.40300
H1286       H  0.93604722  0.77775906  0.30955460     0.35200
C1287       C  0.89358482  0.48255845  0.44743389    -0.26500
C1288       C  0.89348947  0.47620000  0.49001709    -0.14600
C1289       C  0.89561311  0.93265467  0.50664716     0.36100
C1290       C  0.89886394  0.89615836  0.47964271    -0.25900
C1291       C  0.89883267  0.90171216  0.43609115    -0.15200
C1292       C  0.89536621  0.94632412  0.42079088     0.37100
N1293       N  0.89586356  0.45571137  0.37721268    -0.89400
H1294       H  0.89185781  0.51622451  0.43480672     0.18300
H1295       H  0.90307344  0.86371825  0.49344012     0.18200
N1296       N  0.89502906  0.92507191  0.05040026    -0.88500
H1297       H  0.91328835  0.47799709  0.37100128     0.35600
H1298       H  0.87442462  0.97139441  0.37050301     0.40700
H1299       H  0.91442307  0.93939301  0.06235170     0.40300
H1300       H  0.89628169  0.89087525  0.05745447     0.35200
C1301       C  0.91885480  0.73844007  0.44904700    -0.26500
C1302       C  0.89436804  0.73461261  0.47599427    -0.14600
C1303       C  0.87176969  0.76798439  0.47490682     0.36100
C1304       C  0.87608691  0.80680697  0.45093605    -0.25900
C1305       C  0.90250987  0.81423942  0.42707282    -0.15200
C1306       C  0.92277630  0.77630174  0.42365242     0.37100
N1307       N  0.94690488  0.77274478  0.39424723    -0.89400
H1308       H  0.93556690  0.71168222  0.44785630     0.18300
H1309       H  0.85928817  0.83285020  0.45386468     0.18200
N1310       N  0.84459292  0.76273948  0.49869362    -0.88500
H1311       H  0.96744516  0.77372376  0.40961245     0.35600
H1312       H  0.94602722  0.79725399  0.37152548     0.40700
H1313       H  0.83331216  0.73518574  0.48690219     0.40300
H1314       H  0.83019132  0.79042060  0.49481010     0.35200
C1315       C  0.05238580  0.66172584  0.03584412    -0.26500
C1316       C  0.07445188  0.62997860  0.04915391    -0.14600
C1317       C  0.06367856  0.59371740  0.07394609     0.36100
C1318       C  0.03312814  0.59139233  0.08586341    -0.25900
C1319       C  0.01194937  0.62306640  0.07216674    -0.15200
C1320       C  0.02175129  0.65864579  0.04694954     0.37100
N1321       N  0.00022090  0.69096466  0.03147121    -0.89400
H1322       H  0.05792502  0.68749832  0.01383390     0.18300
H1323       H  0.02563932  0.56303486  0.10409050     0.18200
N1324       N  0.08331480  0.55742783  0.08544059    -0.88500
H1325       H  0.01067042  0.71492015  0.51299966     0.35600
H1326       H  0.99126340  0.70820502  0.05678064     0.40700
H1327       H  0.07532653  0.52831976  0.07181714     0.40300
H1328       H  0.08146395  0.55303187  0.11733548     0.35200
C1329       C  0.73426224  0.67451438  0.08462809    -0.26500
C1330       C  0.71511554  0.63970531  0.09744393    -0.14600
C1331       C  0.72910738  0.59997153  0.11357726     0.36100
C1332       C  0.76047514  0.59432445  0.11136022    -0.25900
C1333       C  0.77905268  0.62772408  0.09501159    -0.15200
C1334       C  0.76564412  0.66882329  0.08236795     0.37100
N1335       N  0.78365357  0.70359270  0.56514608    -0.89400
H1336       H  0.72533121  0.70601606  0.57469165     0.18300
H1337       H  0.77042797  0.56346123  0.12307782     0.18200
N1338       N  0.71249196  0.56478099  0.13318051    -0.88500
H1339       H  0.77055692  0.73203356  0.55836615     0.35600
H1340       H  0.79272520  0.69267434  0.53706970     0.40700
H1341       H  0.69737424  0.55074870  0.11272056     0.40300
H1342       H  0.70089703  0.57754006  0.15868410     0.35200
C1343       C  0.55636985  0.60159419  0.15643262    -0.26500
C1344       C  0.57529349  0.63782809  0.14561954    -0.14600
C1345       C  0.56154846  0.67360626  0.12264287     0.36100
C1346       C  0.53165138  0.67075284  0.10885509    -0.25900
C1347       C  0.51388883  0.63405234  0.11896438    -0.15200
C1348       C  0.52629816  0.59932027  0.14325858     0.37100
N1349       N  0.50787887  0.56226318  0.15558797    -0.89400
H1350       H  0.56370114  0.57594553  0.17768150     0.18300
H1351       H  0.52181718  0.69855979  0.09170710     0.18200
N1352       N  0.57750102  0.71397922  0.11423145    -0.88500
H1353       H  0.52003704  0.53956624  0.17396030     0.35600
H1354       H  0.50204214  0.54508244  0.12888188     0.40700
H1355       H  0.56605339  0.74027555  0.12889366     0.40300
H1356       H  0.57649239  0.72024553  0.08252689     0.35200
C1357       C  0.74704275  0.85348701  0.31781808    -0.26500
C1358       C  0.73380846  0.87284786  0.35256107    -0.14600
C1359       C  0.75228722  0.88755418  0.38484308     0.36100
C1360       C  0.78386520  0.88151248  0.38189312    -0.25900
C1361       C  0.79751484  0.86263596  0.34642080    -0.15200
C1362       C  0.77831217  0.84963620  0.31379365     0.37100
N1363       N  0.79044238  0.83323957  0.27569550    -0.89400
H1364       H  0.73296442  0.84282336  0.29261107     0.18300
H1365       H  0.79741417  0.89322359  0.40695103     0.18200
N1366       N  0.73892745  0.90783907  0.42075220    -0.88500
H1367       H  0.78300779  0.85432684  0.25183449     0.35600
H1368       H  0.78184892  0.80133860  0.27066169     0.40700
H1369       H  0.72917318  0.93833866  0.41155537     0.40300
H1370       H  0.75545797  0.91554661  0.44227965     0.35200
C1371       C  0.60117856  0.51386350  0.49364619    -0.26500
C1372       C  0.61732887  0.01815458  0.45581765    -0.14600
C1373       C  0.63669796  0.05488363  0.45019718     0.36100
C1374       C  0.64130959  0.58392709  0.48257424    -0.25900
C1375       C  0.62787148  0.57760170  0.52135860    -0.15200
C1376       C  0.60633407  0.54378145  0.52641166     0.37100
N1377       N  0.59092179  0.53857491  0.56515653    -0.89400
H1378       H  0.58598352  0.48622862  0.49833843     0.18300
H1379       H  0.65708471  0.61091307  0.47799142     0.18200
N1380       N  0.65128654  0.06293146  0.41134548    -0.88500
H1381       H  0.57640089  0.51137375  0.56418886     0.35600
H1382       H  0.57735795  0.56704604  0.56945789     0.40700
H1383       H  0.67453538  0.06242469  0.41610212     0.40300
H1384       H  0.64506497  0.09502678  0.40111833     0.35200
C1385       C  0.61198734  0.70309515  0.49423995    -0.26500
C1386       C  0.62426024  0.71829376  0.53120952    -0.14600
C1387       C  0.62697379  0.76479600  0.53752216     0.36100
C1388       C  0.61906874  0.79493804  0.50563920    -0.25900
C1389       C  0.60936698  0.77940307  0.46727972    -0.15200
C1390       C  0.60504444  0.73288099  0.46190096     0.37100
N1391       N  0.59419311  0.71456377  0.42396981    -0.89400
H1392       H  0.60952328  0.66753092  0.48935635     0.18300
H1393       H  0.62249936  0.83048852  0.50972207     0.18200
N1394       N  0.63900933  0.78117022  0.07522008    -0.88500
H1395       H  0.61173689  0.69578921  0.41074938     0.35600
H1396       H  0.58814216  0.73956971  0.40280497     0.40700
H1397       H  0.62358275  0.77350919  0.09855735     0.40300
H1398       H  0.64040628  0.81608522  0.07431112     0.35200
C1399       C  0.63744694  0.56115380  0.25104999    -0.26500
C1400       C  0.62850417  0.01969105  0.23616502    -0.14600
C1401       C  0.61992025  0.01692079  0.19445258     0.36100
C1402       C  0.61689133  0.55651603  0.17066236    -0.25900
C1403       C  0.61941004  0.59953096  0.18826796    -0.15200
C1404       C  0.63388784  0.60060978  0.22791784     0.37100
N1405       N  0.64768718  0.63927655  0.24513790    -0.89400
H1406       H  0.64655208  0.56348509  0.28190828     0.18300
H1407       H  0.60981533  0.55402225  0.13896292     0.18200
N1408       N  0.61387788  0.97418996  0.17641746    -0.88500
H1409       H  0.63271102  0.65696180  0.26401648     0.35600
H1410       H  0.65864090  0.65884073  0.22323087     0.40700
H1411       H  0.63404202  0.95573922  0.17619160     0.40300
H1412       H  0.60736193  0.97805508  0.14563178     0.35200
C1413       C  0.62877741  0.72076426  0.17752631    -0.26500
C1414       C  0.60916519  0.68522529  0.18787709    -0.14600
C1415       C  0.59012106  0.69178246  0.22331067     0.36100
C1416       C  0.59383092  0.72907672  0.24857981    -0.25900
C1417       C  0.61479818  0.76204830  0.23923166    -0.15200
C1418       C  0.63200571  0.75846023  0.20267895     0.37100
N1419       N  0.65329270  0.79187866  0.19020962    -0.89400
H1420       H  0.64237513  0.71979843  0.14992300     0.18300
H1421       H  0.57991285  0.73242497  0.27601933     0.18200
N1422       N  0.56730036  0.66101140  0.23581879    -0.88500
H1423       H  0.67464580  0.77672952  0.19010975     0.35600
H1424       H  0.65416699  0.81815094  0.21116386     0.40700
H1425       H  0.57618417  0.62868047  0.23873319     0.40300
H1426       H  0.54979510  0.66207366  0.21455339     0.35200
C1427       C  0.49471576  0.85771654  0.29128065    -0.26500
C1428       C  0.50282599  0.89052157  0.31944809    -0.14600
C1429       C  0.48069775  0.92080432  0.33357926     0.36100
C1430       C  0.45100331  0.91761236  0.31877923    -0.25900
C1431       C  0.44173736  0.88298191  0.29226780    -0.15200
C1432       C  0.46514059  0.85376249  0.27701513     0.37100
N1433       N  0.46042169  0.82212971  0.24474985    -0.89400
H1434       H  0.51193414  0.83531701  0.27902843     0.18300
H1435       H  0.43461899  0.94245085  0.32824932     0.18200
N1436       N  0.48868353  0.95599679  0.36125722    -0.88500
H1437       H  0.47462940  0.82997548  0.21998421     0.35600
H1438       H  0.46717235  0.79045446  0.25544295     0.40700
H1439       H  0.49465574  0.94105508  0.38936191     0.40300
H1440       H  0.47005243  0.97663964  0.36744843     0.35200
Zn1441     Zn  0.63944171  0.83421559  0.84975327     1.49700
Zn1442     Zn  0.58722857  0.89721208  0.89049998     1.49400
Zn1443     Zn  0.64614362  0.94046002  0.84855657     1.49100
Zn1444     Zn  0.59841346  0.89339382  0.79105551     1.49500
O1445       O  0.61760727  0.89141693  0.84539898    -1.84300
O1446       O  0.62822754  0.80262478  0.90234850    -0.74900
O1447       O  0.59384162  0.95411416  0.92443540    -0.74800
O1448       O  0.68925725  0.91772440  0.85395740    -0.74300
O1449       O  0.59223360  0.84476842  0.93127057    -0.75000
O1450       O  0.68460830  0.84376968  0.85025468    -0.74600
O1451       O  0.63667046  0.97865677  0.89770393    -0.75100
O1452       O  0.60974776  0.94835637  0.75770923    -0.74500
O1453       O  0.54434532  0.89701353  0.86633476    -0.75300
O1454       O  0.64283236  0.98116635  0.79812283    -0.74700
O1455       O  0.55375926  0.89388170  0.79882361    -0.75100
O1456       O  0.60667235  0.83781013  0.75749315    -0.75100
O1457       O  0.62952756  0.79272577  0.80269767    -0.74800
C1458       C  0.60955896  0.81028472  0.93145697     0.77000
C1459       C  0.61546624  0.98185039  0.92415214     0.77400
C1460       C  0.70084354  0.87846909  0.85309500     0.76400
C1461       C  0.62747455  0.98046280  0.76497875     0.76800
C1462       C  0.53531660  0.89476972  0.82900935     0.77900
C1463       C  0.61743947  0.79963931  0.76766013     0.77000
C1464       C  0.60843825  0.64117321  0.66142243    -0.02700
C1465       C  0.68056641  0.64292662  0.59011658     0.86300
C1466       C  0.66836913  0.68503547  0.56705978    -0.53900
C1467       C  0.63833164  0.68513393  0.06005664     0.09200
C1468       C  0.62239165  0.64312882  0.57691247     0.20200
C1469       C  0.66145576  0.64107814  0.62950467    -0.54700
C1470       C  0.63074121  0.64185279  0.62381024     0.09300
C1471       C  0.66967160  0.60439933  0.56349002    -0.54200
C1472       C  0.63982715  0.60414927  0.05670372     0.09900
H1473       H  0.68183807  0.71130576  0.55371929     0.14400
H1474       H  0.59823705  0.64257204  0.56924146     0.00200
H1475       H  0.67165036  0.64059818  0.65965029     0.14700
H1476       H  0.68512557  0.58146365  0.54796910     0.14500
Zn1477     Zn  0.86759176  0.55908256  0.59435468     1.49700
Zn1478     Zn  0.87299401  0.66409389  0.59012381     1.49400
Zn1479     Zn  0.92429625  0.60571300  0.63701607     1.49100
Zn1480     Zn  0.91766251  0.60745274  0.53725214     1.49500
O1481       O  0.89602498  0.60860449  0.58990179    -1.84300
O1482       O  0.82344608  0.58010408  0.59539384    -0.74900
O1483       O  0.87974047  0.69612558  0.64206331    -0.74800
O1484       O  0.91905478  0.54692312  0.66991573    -0.74300
O1485       O  0.82899852  0.65337051  0.59029222    -0.75000
O1486       O  0.87591637  0.52222334  0.64506996    -0.74600
O1487       O  0.91297317  0.65577383  0.67774082    -0.75100
O1488       O  0.96217807  0.61372169  0.54765210    -0.74500
O1489       O  0.88126525  0.70440912  0.54170265    -0.75300
O1490       O  0.96832660  0.61235786  0.61588426    -0.74700
O1491       O  0.90749516  0.66013669  0.99910645    -0.75100
O1492       O  0.91019753  0.54842034  0.00907186    -0.75100
O1493       O  0.87473103  0.51614890  0.54781821    -0.74800
C1494       C  0.81212865  0.61956833  0.59314401     0.77000
C1495       C  0.89436184  0.68869547  0.67496699     0.77400
C1496       C  0.89744059  0.51909789  0.67073067     0.76400
C1497       C  0.97907218  0.61572352  0.57921697     0.76800
C1498       C  0.89438170  0.69746343  0.00668820     0.77900
C1499       C  0.89264052  0.51595927  0.01707613     0.77000
C1500       C  0.90685379  0.86191791  0.90584040    -0.02700
C1501       C  0.83216954  0.85874764  0.84076272     0.86300
C1502       C  0.84183108  0.81157483  0.82693461    -0.53900
C1503       C  0.87103787  0.80724627  0.81423009     0.09200
C1504       C  0.88941048  0.84976446  0.82247771     0.20200
C1505       C  0.85317911  0.86806225  0.87706622    -0.54700
C1506       C  0.88359137  0.86221974  0.86913977     0.09300
C1507       C  0.84311207  0.89075011  0.80695022    -0.54200
C1508       C  0.87284582  0.88694086  0.79717904     0.09900
H1509       H  0.82568975  0.78523096  0.82186784     0.14400
H1510       H  0.91303062  0.84426446  0.81304051     0.00200
H1511       H  0.84484421  0.87830567  0.90685245     0.14700
H1512       H  0.82821444  0.91457465  0.79146906     0.14500
Zn1513     Zn  0.41794874  0.63690366  0.64762214     1.49700
Zn1514     Zn  0.37320998  0.58276616  0.59080553     1.49400
Zn1515     Zn  0.37247277  0.68915820  0.58814558     1.49100
Zn1516     Zn  0.42888418  0.63378528  0.54787632     1.49500
O1517       O  0.39845596  0.63579260  0.59327203    -1.84300
O1518       O  0.40933951  0.58101284  0.68127510    -0.74900
O1519       O  0.32873514  0.59869945  0.58898672    -0.74800
O1520       O  0.37773935  0.73068333  0.63648145    -0.74300
O1521       O  0.38114428  0.54111295  0.63907740    -0.75000
O1522       O  0.40630819  0.69255967  0.68053923    -0.74600
O1523       O  0.32809122  0.67312140  0.58601538    -0.75100
O1524       O  0.42238466  0.68723731  0.50894253    -0.74500
O1525       O  0.38269973  0.54770790  0.54006840    -0.75300
O1526       O  0.38271317  0.72310035  0.53611427    -0.74700
O1527       O  0.42315742  0.57794208  0.51144148    -0.75100
O1528       O  0.47186994  0.63484440  0.57201604    -0.75100
O1529       O  0.46292669  0.63654277  0.63979282    -0.74800
C1530       C  0.39552943  0.54525302  0.67264663     0.77000
C1531       C  0.31443609  0.63587951  0.58678153     0.77400
C1532       C  0.39093344  0.72757419  0.67118742     0.76400
C1533       C  0.40268242  0.71873235  0.50804866     0.76800
C1534       C  0.40284333  0.54802374  0.51204990     0.77900
C1535       C  0.48114232  0.63546490  0.60932506     0.77000
C1536       C  0.40791401  0.88380250  0.77807888    -0.02700
C1537       C  0.33426014  0.88982552  0.84723294     0.86300
C1538       C  0.34665095  0.93040843  0.87005672    -0.53900
C1539       C  0.37651292  0.92772762  0.87897843     0.09200
C1540       C  0.39212499  0.88511943  0.86206631     0.20200
C1541       C  0.35410997  0.88667433  0.80794565    -0.54700
C1542       C  0.38484238  0.88502348  0.81495930     0.09300
C1543       C  0.34413056  0.84896136  0.87283777    -0.54200
C1544       C  0.37412573  0.84603391  0.88054652     0.09900
H1545       H  0.33232667  0.95728693  0.88174809     0.14400
H1546       H  0.41612675  0.88235313  0.87050307     0.00200
H1547       H  0.34525640  0.88705355  0.77692085     0.14700
H1548       H  0.32829271  0.82487292  0.88521831     0.14500
Zn1549     Zn  0.14304360  0.88156570  0.89545827     1.49700
Zn1550     Zn  0.09186140  0.82700204  0.84661254     1.49400
Zn1551     Zn  0.09115910  0.93425935  0.84242992     1.49100
Zn1552     Zn  0.14289321  0.87830672  0.79733012     1.49500
O1553       O  0.11719200  0.88033996  0.84605854    -1.84300
O1554       O  0.13670119  0.82470539  0.93098410    -0.74900
O1555       O  0.04833145  0.84453543  0.85757603    -0.74800
O1556       O  0.10076327  0.97457119  0.88983513    -0.74300
O1557       O  0.10399653  0.78619449  0.89393277    -0.75000
O1558       O  0.13308692  0.93736280  0.92972495    -0.74600
O1559       O  0.04712406  0.91880946  0.85111692    -0.75100
O1560       O  0.13383190  0.92948294  0.75988568    -0.74500
O1561       O  0.09608877  0.79105295  0.79317772    -0.75300
O1562       O  0.09701896  0.96942105  0.78817759    -0.74700
O1563       O  0.13621112  0.82310357  0.76488175    -0.75100
O1564       O  0.18698482  0.88166320  0.81000537    -0.75100
O1565       O  0.18765825  0.88520337  0.87813466    -0.74800
C1566       C  0.12083460  0.78988424  0.92538910     0.77000
C1567       C  0.03404564  0.88183173  0.85836711     0.77400
C1568       C  0.11639044  0.97171757  0.92265973     0.76400
C1569       C  0.11573853  0.96265862  0.75874328     0.76800
C1570       C  0.11645017  0.79279897  0.76532586     0.77900
C1571       C  0.20155082  0.88498769  0.84341574     0.77000
C1572       C  0.10770034  0.62977543  0.53167134    -0.02700
C1573       C  0.18258036  0.63385588  0.59631312     0.86300
C1574       C  0.17252761  0.59463938  0.62372226    -0.53900
C1575       C  0.14270279  0.59478705  0.63381310     0.09200
C1576       C  0.12494673  0.63418225  0.61428851     0.20200
C1577       C  0.16210484  0.63089178  0.55823596    -0.54700
C1578       C  0.13155061  0.63063366  0.56692729     0.09300
C1579       C  0.17117137  0.67618857  0.61793703    -0.54200
C1580       C  0.14163086  0.67587949  0.62921149     0.09900
H1581       H  0.18820125  0.56945300  0.63551553     0.14400
H1582       H  0.10087096  0.63515721  0.62309704     0.00200
H1583       H  0.17054731  0.62928653  0.52693647     0.14700
H1584       H  0.18623690  0.70217781  0.62814678     0.14500
C1585       C  0.14986898  0.70063908  0.70104156    -0.26500
C1586       C  0.13187211  0.70257959  0.66553627    -0.14600
C1587       C  0.10618860  0.73060906  0.66518954     0.36100
C1588       C  0.09995069  0.75830991  0.69932098    -0.25900
C1589       C  0.11904744  0.75787521  0.73371795    -0.15200
C1590       C  0.14382284  0.72810469  0.73494660     0.37100
N1591       N  0.16332698  0.72707681  0.77021113    -0.89400
H1592       H  0.16909665  0.67799723  0.70202510     0.18300
H1593       H  0.08105108  0.78158707  0.69815252     0.18200
N1594       N  0.08721003  0.73239579  0.62971973    -0.88500
H1595       H  0.18086376  0.70381199  0.76600461     0.35600
H1596       H  0.15072563  0.71582097  0.79547814     0.40700
H1597       H  0.08668198  0.76538113  0.61865463     0.40300
H1598       H  0.06543815  0.72408108  0.63907397     0.35200
C1599       C  0.10714005  0.53889928  0.72812635    -0.26500
C1600       C  0.11798810  0.99468760  0.72331455    -0.14600
C1601       C  0.13277672  0.98298241  0.68576599     0.36100
C1602       C  0.13852036  0.51559872  0.65648947    -0.25900
C1603       C  0.13040865  0.56052474  0.66273448    -0.15200
C1604       C  0.11332661  0.57185811  0.69803056     0.37100
N1605       N  0.10339608  0.61702433  0.70452699    -0.89400
H1606       H  0.09529519  0.54869186  0.75601904     0.18300
H1607       H  0.15065789  0.50613447  0.62870051     0.18200
N1608       N  0.14220133  0.93807239  0.67641468    -0.88500
H1609       H  0.11214480  0.62778805  0.73257281     0.35600
H1610       H  0.07994550  0.61718295  0.70713389     0.40700
H1611       H  0.12394816  0.91674390  0.68044009     0.40300
H1612       H  0.15979536  0.92836946  0.69588061     0.35200
C1613       C  0.13203137  0.71031896  0.94084860    -0.26500
C1614       C  0.12190139  0.75188930  0.95526052    -0.14600
C1615       C  0.11141493  0.75461143  0.49655049     0.36100
C1616       C  0.10938986  0.71539145  0.52080374    -0.25900
C1617       C  0.11523243  0.67229762  0.50452701    -0.15200
C1618       C  0.13019602  0.67134741  0.96523954     0.37100
N1619       N  0.14520534  0.63177339  0.95048505    -0.89400
H1620       H  0.14179907  0.70804794  0.91017822     0.18300
H1621       H  0.10082671  0.71825465  0.55195353     0.18200
N1622       N  0.10087280  0.79600358  0.51422408    -0.88500
H1623       H  0.16802530  0.63881249  0.94664286     0.35600
H1624       H  0.13651915  0.62410063  0.92150228     0.40700
H1625       H  0.10242641  0.82296155  0.99344190     0.40300
H1626       H  0.11500830  0.80342493  0.53882090     0.35200
C1627       C  0.09341458  0.54401978  0.94505826    -0.26500
C1628       C  0.11428115  0.50936922  0.95307118    -0.14600
C1629       C  0.13227118  0.01240312  0.48838249     0.36100
C1630       C  0.12979811  0.55039575  0.51397294    -0.25900
C1631       C  0.10972483  0.58638688  0.50498875    -0.15200
C1632       C  0.09094567  0.58179565  0.97015942     0.37100
N1633       N  0.06997303  0.61649330  0.95866735    -0.89400
H1634       H  0.07890356  0.54249632  0.91838012     0.21100
H1635       H  0.14343552  0.55097859  0.54138575     0.18200
N1636       N  0.15345095  0.97725999  0.49853645    -0.88500
H1637       H  0.04848222  0.60279096  0.95804634     0.35600
H1638       H  0.07531654  0.62748445  0.92881357     0.40700
H1639       H  0.14110779  0.94915448  0.50722489     0.40300
H1640       H  0.16616999  0.98581418  0.52427605     0.35200
C1641       C  0.28421759  0.88843057  0.80645219    -0.26500
C1642       C  0.29961328  0.89177933  0.84415918    -0.14600
C1643       C  0.28207441  0.89482169  0.88082429     0.36100
C1644       C  0.25061365  0.89331496  0.87938014    -0.25900
C1645       C  0.23522212  0.88866268  0.84209465    -0.15200
C1646       C  0.25240334  0.88710351  0.80491353     0.37100
N1647       N  0.23775536  0.88359828  0.76563963    -0.89400
H1648       H  0.29663383  0.88627643  0.77784770     0.18300
H1649       H  0.23820225  0.89520633  0.90819893     0.18200
N1650       N  0.29623757  0.89860347  0.92024650    -0.88500
H1651       H  0.25355688  0.88036684  0.74178503     0.35600
H1652       H  0.22626085  0.91384422  0.76020968     0.40700
H1653       H  0.28965647  0.87150626  0.93864991     0.40300
H1654       H  0.28835199  0.92802568  0.93414263     0.35200
C1655       C  0.23228063  0.62998565  0.55368093    -0.26500
C1656       C  0.21718619  0.63412364  0.59195834    -0.14600
C1657       C  0.23504943  0.63834677  0.62800837     0.36100
C1658       C  0.26646483  0.63976024  0.62515326    -0.25900
C1659       C  0.28118081  0.63573050  0.58725537    -0.15200
C1660       C  0.26411371  0.63015565  0.55115657     0.37100
N1661       N  0.27919213  0.62496029  0.51210385    -0.89400
H1662       H  0.21967000  0.62603328  0.52564601     0.18300
H1663       H  0.27952952  0.64336365  0.65305336     0.18200
N1664       N  0.22131031  0.64095489  0.66806258    -0.88500
H1665       H  0.26353962  0.62151993  0.48842259     0.35600
H1666       H  0.29160229  0.59498151  0.51329928     0.40700
H1667       H  0.22779049  0.67089398  0.68172285     0.40300
H1668       H  0.22962898  0.61439822  0.68606932     0.35200
C1669       C  0.40399176  0.82412002  0.94225875    -0.26500
C1670       C  0.38690840  0.81072471  0.90826814    -0.14600
C1671       C  0.37916596  0.76491818  0.90475443     0.36100
C1672       C  0.38679905  0.73489509  0.93653918    -0.25900
C1673       C  0.40118201  0.74940383  0.47227802    -0.15200
C1674       C  0.41080496  0.79400165  0.47467889     0.37100
N1675       N  0.42644711  0.80884591  0.51063754    -0.89400
H1676       H  0.41039988  0.85878240  0.44489501     0.18300
H1677       H  0.37977959  0.70036620  0.93444917     0.18200
N1678       N  0.36358460  0.74746854  0.86972630    -0.88500
H1679       H  0.43153620  0.84282761  0.50791044     0.35600
H1680       H  0.44698970  0.79141607  0.51184165     0.40700
H1681       H  0.36122463  0.77105651  0.84605270     0.40300
H1682       H  0.34201235  0.73854196  0.87947607     0.35200
C1683       C  0.41074267  0.02401289  0.93863243    -0.26500
C1684       C  0.40123500  0.51363390  0.47896289    -0.14600
C1685       C  0.38697596  0.97224544  0.48616499     0.36100
C1686       C  0.38075737  0.94386775  0.95317853    -0.25900
C1687       C  0.38865280  0.95552534  0.91266431    -0.15200
C1688       C  0.40381128  0.99597851  0.90518066     0.37100
N1689       N  0.41066655  0.00963450  0.86364833    -0.89400
H1690       H  0.42176250  0.55570444  0.43270904     0.18300
H1691       H  0.36850815  0.91323728  0.95867962     0.18200
N1692       N  0.37708500  0.45988351  0.52712055    -0.88500
H1693       H  0.42218674  0.03991569  0.86342366     0.35600
H1694       H  0.39027450  0.01570711  0.84859753     0.40700
H1695       H  0.39640737  0.45528408  0.54497863     0.40300
H1696       H  0.36667724  0.92890094  0.52702315     0.35200
C1697       C  0.38667290  0.96491082  0.76370765    -0.26500
C1698       C  0.40485423  0.92786472  0.75120683    -0.14600
C1699       C  0.42106725  0.93300057  0.71341660     0.36100
C1700       C  0.41695575  0.97122335  0.68865573    -0.25900
C1701       C  0.39813588  0.50632942  0.70071692    -0.15200
C1702       C  0.38284941  0.50329720  0.73887058     0.37100
N1703       N  0.36292862  0.53816588  0.75348800    -0.89400
H1704       H  0.37535186  0.96509349  0.79318560     0.18300
H1705       H  0.42918586  0.97369517  0.65968020     0.18200
N1706       N  0.44141688  0.89899806  0.69915521    -0.88500
H1707       H  0.34140218  0.52469235  0.75595148     0.35600
H1708       H  0.36130985  0.56472990  0.73247677     0.40700
H1709       H  0.46265912  0.91318483  0.69561668     0.40300
H1710       H  0.43431630  0.88843367  0.67015075     0.35200
C1711       C  0.38423633  0.84569567  0.71472714    -0.26500
C1712       C  0.39906452  0.84107647  0.75313749    -0.14600
C1713       C  0.40346325  0.79610113  0.76812599     0.36100
C1714       C  0.39934006  0.75983091  0.74136101    -0.25900
C1715       C  0.38944582  0.76596942  0.70063722    -0.15200
C1716       C  0.37966224  0.80925207  0.68841910     0.37100
N1717       N  0.36563854  0.81659654  0.64901042    -0.89400
H1718       H  0.37606989  0.87807962  0.70442048     0.18300
H1719       H  0.40498629  0.72640807  0.75235233     0.18200
N1720       N  0.41380688  0.78539553  0.80908781    -0.88500
H1721       H  0.36116084  0.85065654  0.64391697     0.35600
H1722       H  0.34474436  0.80096998  0.65002022     0.40700
H1723       H  0.41841861  0.81359927  0.82618765     0.40300
H1724       H  0.43404551  0.76731209  0.80682886     0.35200
C1725       C  0.94859981  0.89157220  0.85631768    -0.26500
C1726       C  0.94038794  0.87192100  0.89435282    -0.14600
C1727       C  0.96415849  0.86428861  0.92301037     0.36100
C1728       C  0.99431321  0.86781758  0.91022561    -0.25900
C1729       C  0.00186868  0.88197722  0.87024891    -0.15200
C1730       C  0.97860345  0.89599794  0.84348478     0.37100
N1731       N  0.98423562  0.91437361  0.80304491    -0.89400
H1732       H  0.93178260  0.90428597  0.83598001     0.18300
H1733       H  0.01203992  0.85927516  0.93185719     0.18200
N1734       N  0.95802040  0.85154775  0.96488190    -0.88500
H1735       H  0.97470000  0.89292522  0.78155008     0.35600
H1736       H  0.00715269  0.91538722  0.79616808     0.40700
H1737       H  0.96716674  0.87572482  0.98410597     0.40300
H1738       H  0.96906078  0.82112590  0.97111841     0.35200
C1739       C  0.90310654  0.95253617  0.77192898    -0.26500
C1740       C  0.88549013  0.91513347  0.76306120    -0.14600
C1741       C  0.87440386  0.91074822  0.72272730     0.36100
C1742       C  0.88023462  0.94376762  0.69280185    -0.25900
C1743       C  0.89634398  0.48224824  0.70204077    -0.15200
C1744       C  0.90859054  0.48628530  0.74194853     0.37100
N1745       N  0.92514079  0.52543495  0.75287405    -0.89400
H1746       H  0.91049420  0.95799959  0.80280270     0.18300
H1747       H  0.87077843  0.93994948  0.66230652     0.18200
N1748       N  0.85582350  0.87375119  0.71252855    -0.88500
H1749       H  0.93301911  0.52279013  0.78314479     0.35600
H1750       H  0.91015954  0.55274615  0.75227605     0.40700
H1751       H  0.86586349  0.85677734  0.68781585     0.40300
H1752       H  0.83497521  0.88637131  0.70275955     0.35200
C1753       C  0.85795074  0.77487081  0.74620932    -0.26500
C1754       C  0.87810071  0.77584774  0.77933527    -0.14600
C1755       C  0.90348384  0.74680524  0.77804757     0.36100
C1756       C  0.90829960  0.71850398  0.74423601    -0.25900
C1757       C  0.88838251  0.71845418  0.71082651    -0.15200
C1758       C  0.86235975  0.74644156  0.71251629     0.37100
N1759       N  0.84002704  0.74553218  0.68055864    -0.89400
H1760       H  0.83835024  0.79656029  0.74651395     0.18300
H1761       H  0.92806196  0.69684222  0.74393322     0.18200
N1762       N  0.92482394  0.74503150  0.81051497    -0.88500
H1763       H  0.82291726  0.76919768  0.68596776     0.35600
H1764       H  0.82986895  0.71417785  0.68191561     0.40700
H1765       H  0.91314319  0.74009314  0.83819970     0.40300
H1766       H  0.93559293  0.77577801  0.81049090     0.35200
C1767       C  0.89335497  0.48253623  0.94769585    -0.26500
C1768       C  0.89349585  0.47627664  0.99027580    -0.14600
C1769       C  0.89527457  0.93230410  0.00645447     0.36100
C1770       C  0.89867880  0.89584696  0.97942394    -0.25900
C1771       C  0.89911235  0.90153113  0.93588465    -0.15200
C1772       C  0.89598661  0.94620733  0.92064991     0.37100
N1773       N  0.89515292  0.45553545  0.87753006    -0.89400
H1774       H  0.89149114  0.51616922  0.93502242     0.18300
H1775       H  0.90267600  0.86336011  0.99323401     0.18200
N1776       N  0.89602387  0.92556769  0.55060654    -0.88500
H1777       H  0.91240163  0.47803892  0.87105337     0.35600
H1778       H  0.87561655  0.97167735  0.87009757     0.40700
H1779       H  0.91548477  0.94021981  0.56199691     0.40300
H1780       H  0.89761241  0.89140916  0.55772426     0.35200
C1781       C  0.91955306  0.73848889  0.94894705    -0.26500
C1782       C  0.89496485  0.73449419  0.97570761    -0.14600
C1783       C  0.87223681  0.76765344  0.97439889     0.36100
C1784       C  0.87643097  0.80638287  0.95027747    -0.25900
C1785       C  0.90293706  0.81406702  0.92668078    -0.15200
C1786       C  0.92340989  0.77634260  0.92350387     0.37100
N1787       N  0.94761948  0.77291990  0.89420261    -0.89400
H1788       H  0.93637528  0.71187367  0.94793393     0.18300
H1789       H  0.85947577  0.83222973  0.95295182     0.18200
N1790       N  0.84506272  0.76232204  0.99817636    -0.88500
H1791       H  0.96811233  0.77427703  0.90965702     0.35600
H1792       H  0.94665431  0.79727507  0.87134556     0.40700
H1793       H  0.83389429  0.73459833  0.98652506     0.40300
H1794       H  0.83056155  0.78986606  0.99415343     0.35200
C1795       C  0.05230049  0.66160169  0.53585215    -0.26500
C1796       C  0.07435642  0.62982603  0.54915445    -0.14600
C1797       C  0.06357104  0.59359436  0.57395919     0.36100
C1798       C  0.03299910  0.59124514  0.58580615    -0.25900
C1799       C  0.01181600  0.62290170  0.57205311    -0.15200
C1800       C  0.02165495  0.65853837  0.54693794     0.37100
N1801       N  0.00015746  0.69097221  0.53157771    -0.89400
H1802       H  0.05785604  0.68739527  0.51387264     0.18300
H1803       H  0.02550359  0.56289565  0.60403730     0.18200
N1804       N  0.08322827  0.55736173  0.58553790    -0.88500
H1805       H  0.01070737  0.71483143  0.01274522     0.35600
H1806       H  0.99118968  0.70809000  0.55697179     0.40700
H1807       H  0.07528052  0.52821598  0.57194143     0.40300
H1808       H  0.08135149  0.55302122  0.61743732     0.35200
C1809       C  0.73414662  0.67384212  0.58388769    -0.26500
C1810       C  0.71494600  0.63921323  0.59698107    -0.14600
C1811       C  0.72888741  0.59945738  0.61316700     0.36100
C1812       C  0.76025028  0.59370817  0.61096106    -0.25900
C1813       C  0.77886170  0.62698044  0.59447338    -0.15200
C1814       C  0.76550437  0.66799210  0.58152732     0.37100
N1815       N  0.78375732  0.70468705  0.06642419    -0.89400
H1816       H  0.72536878  0.70672082  0.07563519     0.18300
H1817       H  0.77017419  0.56288341  0.62281089     0.18200
N1818       N  0.71222451  0.56433140  0.63278920    -0.88500
H1819       H  0.77062302  0.73317063  0.05994310     0.35600
H1820       H  0.79286348  0.69417529  0.03823573     0.40700
H1821       H  0.69704790  0.55040404  0.61234609     0.40300
H1822       H  0.70069281  0.57711401  0.65833321     0.35200
C1823       C  0.55620131  0.60155719  0.65592896    -0.26500
C1824       C  0.57514909  0.63781096  0.64527754    -0.14600
C1825       C  0.56143546  0.67371010  0.62240574     0.36100
C1826       C  0.53152973  0.67099249  0.60864001    -0.25900
C1827       C  0.51376213  0.63425542  0.61857533    -0.15200
C1828       C  0.52615140  0.59936463  0.64268262     0.37100
N1829       N  0.50771649  0.56223973  0.65478516    -0.89400
H1830       H  0.56348045  0.57581898  0.67711011     0.18300
H1831       H  0.52170036  0.69891216  0.59164073     0.18200
N1832       N  0.57742144  0.71407649  0.61410616    -0.88500
H1833       H  0.51986040  0.53941054  0.67303859     0.35600
H1834       H  0.50188780  0.54524380  0.62797443     0.40700
H1835       H  0.56602129  0.74033458  0.62889343     0.40300
H1836       H  0.57636452  0.72048328  0.58242862     0.35200
C1837       C  0.74721477  0.85386862  0.81772290    -0.26500
C1838       C  0.73396633  0.87301487  0.85255948    -0.14600
C1839       C  0.75245924  0.88771622  0.88484260     0.36100
C1840       C  0.78405330  0.88182308  0.88181304    -0.25900
C1841       C  0.79769807  0.86308160  0.84628001    -0.15200
C1842       C  0.77848705  0.85013654  0.81364244     0.37100
N1843       N  0.79061474  0.83382712  0.77550716    -0.89400
H1844       H  0.73313710  0.84322938  0.79250637     0.18300
H1845       H  0.79761742  0.89344716  0.90689409     0.18200
N1846       N  0.73910212  0.90779417  0.92085008    -0.88500
H1847       H  0.78314130  0.85493332  0.75168227     0.35600
H1848       H  0.78205357  0.80191340  0.77043941     0.40700
H1849       H  0.72926355  0.93827700  0.91177469     0.40300
H1850       H  0.75564482  0.91550469  0.94235996     0.35200
C1851       C  0.60151700  0.51427617  0.99352414    -0.26500
C1852       C  0.61705508  0.01776881  0.95584052    -0.14600
C1853       C  0.63601657  0.05492162  0.94996055     0.36100
C1854       C  0.64205255  0.58388227  0.98295262    -0.25900
C1855       C  0.62829083  0.57776091  0.02155838    -0.15200
C1856       C  0.60656801  0.54416982  0.02634235     0.37100
N1857       N  0.59085197  0.53915308  0.06488495    -0.89400
H1858       H  0.58613140  0.48684382  0.99802346     0.18300
H1859       H  0.65797470  0.61071056  0.97855785     0.18200
N1860       N  0.65015563  0.06334646  0.91086810    -0.88500
H1861       H  0.57625794  0.51204814  0.06375784     0.35600
H1862       H  0.57733688  0.56771510  0.06895136     0.40700
H1863       H  0.67344646  0.06334236  0.91521064     0.40300
H1864       H  0.64352414  0.09532414  0.90080136     0.35200
C1865       C  0.61211533  0.70273323  0.99421967    -0.26500
C1866       C  0.62441903  0.71815503  0.03110340    -0.14600
C1867       C  0.62713264  0.76468823  0.03718034     0.36100
C1868       C  0.61921066  0.79463662  0.00516745    -0.25900
C1869       C  0.60946666  0.77888981  0.96690966    -0.15200
C1870       C  0.60510365  0.73235004  0.96176493     0.37100
N1871       N  0.59409979  0.71387216  0.92398862    -0.89400
H1872       H  0.60964017  0.66714043  0.98951651     0.18300
H1873       H  0.62264965  0.83021054  0.00907333     0.18200
N1874       N  0.63883062  0.78105231  0.57565914    -0.88500
H1875       H  0.61159422  0.69505382  0.91069788     0.35600
H1876       H  0.58796916  0.73880742  0.90279549     0.40700
H1877       H  0.62337947  0.77329711  0.59893686     0.40300
H1878       H  0.64025005  0.81596690  0.57491230     0.35200
C1879       C  0.63742619  0.56114930  0.75085415    -0.26500
C1880       C  0.62874020  0.01937130  0.73589807    -0.14600
C1881       C  0.62016590  0.01672575  0.69416556     0.36100
C1882       C  0.61663537  0.55641664  0.67060704    -0.25900
C1883       C  0.61917854  0.59946232  0.68812933    -0.15200
C1884       C  0.63372268  0.60059738  0.72774084     0.37100
N1885       N  0.64744095  0.63932908  0.74495136    -0.89400
H1886       H  0.64663586  0.56351350  0.78165089     0.18300
H1887       H  0.60953353  0.55387141  0.63893286     0.18200
N1888       N  0.61420341  0.97403795  0.67599017    -0.88500
H1889       H  0.63229814  0.65742149  0.76323243     0.35600
H1890       H  0.65876291  0.65847997  0.72308201     0.40700
H1891       H  0.63438375  0.95562413  0.67580892     0.40300
H1892       H  0.60777109  0.97799107  0.64517917     0.35200
C1893       C  0.62886901  0.72047640  0.67733467    -0.26500
C1894       C  0.60904568  0.68515018  0.68752670    -0.14600
C1895       C  0.58979519  0.69196575  0.72271345     0.36100
C1896       C  0.59348479  0.72929511  0.74793610    -0.25900
C1897       C  0.61470227  0.76197672  0.73882149    -0.15200
C1898       C  0.63211258  0.75816873  0.70247618     0.37100
N1899       N  0.65360122  0.79137864  0.69020080    -0.89400
H1900       H  0.64262926  0.71934352  0.64989097     0.18300
H1901       H  0.57941550  0.73283667  0.77521051     0.18200
N1902       N  0.56685619  0.66133698  0.73510508    -0.88500
H1903       H  0.67490613  0.77608588  0.69049409     0.35600
H1904       H  0.65436863  0.81776624  0.71104708     0.40700
H1905       H  0.57567321  0.62896786  0.73810697     0.40300
H1906       H  0.54941466  0.66246566  0.71374458     0.35200
C1907       C  0.49478348  0.85814909  0.79082498    -0.26500
C1908       C  0.50290590  0.89066804  0.81925469    -0.14600
C1909       C  0.48076678  0.92072396  0.83376832     0.36100
C1910       C  0.45106263  0.91768746  0.81896576    -0.25900
C1911       C  0.44177997  0.88325054  0.79225588    -0.15200
C1912       C  0.46517912  0.85419196  0.77671428     0.37100
N1913       N  0.46040177  0.82263938  0.74439355    -0.89400
H1914       H  0.51199666  0.83589785  0.77833263     0.18300
H1915       H  0.43468138  0.94243548  0.82866743     0.18200
N1916       N  0.48873179  0.95549855  0.86190322    -0.88500
H1917       H  0.47455780  0.83054682  0.71958877     0.35600
H1918       H  0.46718913  0.79094309  0.75498977     0.40700
H1919       H  0.49475564  0.94013056  0.88979466     0.40300
H1920       H  0.47006672  0.97596612  0.86841491     0.35200
loop_ 
_geom_bond_atom_site_label_1 
_geom_bond_atom_site_label_2 
_geom_bond_distance 
_geom_bond_site_symmetry_2 
_ccdc_geom_bond_type 
Zn1           O5   1.957       .  S
Zn1           O6   2.007       .  S
Zn1          O10   2.032       .  S
Zn1          O17   2.028       .  S
Zn2           O5   1.991       .  S
Zn2           O7   2.057       .  S
Zn2           O9   2.053       .  S
Zn2          O13   2.064       .  S
Zn3           O5   1.955       .  S
Zn3           O8   2.031       .  S
Zn3          O11   2.004       .  S
Zn3          O14   2.034       .  S
Zn4           O5   1.961       .  S
Zn4          O12   2.025       .  S
Zn4          O15   1.999       .  S
Zn4          O16   2.020       .  S
O6           C18   1.273       .  A
O7           C19   1.278       .  A
O8           C20   1.274       .  A
O9           C18   1.277       .  A
O10          C20   1.275       .  A
O11          C19   1.273       .  A
O12          C21   1.274       .  A
O13          C22   1.279       .  A
O14          C21   1.277       .  A
O15          C22   1.273       .  A
O16          C23   1.272       .  A
O17          C23   1.273       .  A
C18         C429   1.478       .  S
C19         C412   1.493       .  S
C20         C398   1.479       .  S
C21         C440   1.492       .  S
C22         C468   1.483       .  S
C23         C457   1.475       .  S
C24          C30   1.567       .  S
C24         C384   1.578       .  S
C24         C443   1.581       .  S
C24         C454   1.569       .  S
C25          C26   1.551       .  S
C25          C31   1.529       .  S
C25          C29   1.530       .  S
C25         C370   1.548       .  S
C26          H33   1.080       .  S
C26         C507   1.364       .  D
C27         C508   1.540       .  S
C27         C506   1.364       .  D
C27         C426   1.487       .  S
C28          C30   1.567       .  S
C28         C507   1.540       .  S
C28         C512   1.539       .  S
C28          H34   1.104       .  S
C29          H35   1.080       .  S
C29          C30   1.379       .  D
C31          H36   1.087       .  S
C31         C512   1.360       .  D
C32         C508   1.539       .  S
C32         C511   1.361       .  D
C32         C415   1.487       .  S
Zn37         O41   1.963       .  S
Zn37         O42   2.051       .  S
Zn37         O46   2.003       .  S
Zn37         O53   2.007       .  S
Zn38         O41   1.936       .  S
Zn38         O43   1.968       .  S
Zn38         O45   1.986       .  S
Zn38         O49   2.005       .  S
Zn39         O41   1.984       .  S
Zn39         O44   2.063       .  S
Zn39         O47   2.057       .  S
Zn39         O50   2.081       .  S
Zn40         O41   1.954       .  S
Zn40         O48   2.021       .  S
Zn40        O531   2.046   1_554  S
Zn40        O532   2.030       .  S
O42          C54   1.277       .  A
O43          C55   1.268       .  A
O44          C56   1.279       .  A
O45          C54   1.268       .  A
O46          C56   1.273       .  A
O47          C55   1.279       .  A
O48          C57   1.275       .  A
O49         C538   1.271       .  A
O50          C57   1.282       .  A
O51        Zn520   2.046       .  S
O51          C58   1.276       .  A
O52        Zn520   2.029       .  S
O52          C59   1.277       .  A
O53         C539   1.273       .  A
C54         C373   1.493       .  S
C55         C317   1.488       .  S
C56         C303   1.493   1_545  S
C57         C359   1.491   1_655  S
C58         O529   1.271       .  A
C58         C342   1.489       .  S
C59         O533   1.273       .  A
C59         C328   1.476   1_545  S
C60          C66   1.580       .  S
C60         C286   1.567       .  S
C60         C331   1.571       .  S
C60         C345   1.588       .  S
C61          C62   1.536       .  S
C61          C67   1.530       .  S
C61          C65   1.536       .  S
C61         C401   1.545       .  S
C62          H69   1.086       .  S
C62          C63   1.365       .  D
C63          C64   1.545       .  S
C63         C314   1.503       .  S
C64          C68   1.555       .  S
C64          C66   1.579       .  S
C64          H70   1.102       .  S
C65          H71   1.077       .  S
C65          C66   1.383       .  D
C67          H72   1.087       .  S
C67          C68   1.361       .  D
C68         C300   1.496       .  S
Zn73         O77   1.969       .  S
Zn73         O78   2.027       .  S
Zn73         O82   2.042       .  S
Zn73         O89   2.015       .  S
Zn74         O77   1.957       .  S
Zn74         O79   2.029       .  S
Zn74         O81   2.021       .  S
Zn74         O85   1.995       .  S
Zn75         O77   1.962       .  S
Zn75         O80   2.022       .  S
Zn75         O83   2.040       .  S
Zn75         O86   2.014       .  S
Zn76         O77   1.993       .  S
Zn76         O84   2.047       .  S
Zn76         O87   2.069       .  S
Zn76         O88   2.070       .  S
O78          C90   1.273       .  A
O79          C91   1.273       .  A
O80          C92   1.274       .  A
O81          C90   1.273       .  A
O82          C92   1.277       .  A
O83          C91   1.275       .  A
O84          C93   1.277       .  A
O85          C94   1.272       .  A
O86          C93   1.273       .  A
O87          C94   1.279       .  A
O88          C95   1.280       .  A
O89          C95   1.274       .  A
C90         C261   1.474       .  S
C91         C219   1.479       .  S
C92         C275   1.498       .  S
C93         C233   1.474   1_554  S
C94         C244   1.492   1_554  S
C95         C387   1.483       .  S
C96         C102   1.571       .  S
C96         C258   1.577       .  S
C96         C272   1.572       .  S
C96         C471   1.576       .  S
C97          C98   1.536       .  S
C97         C103   1.531       .  S
C97         C101   1.547       .  S
C97         C202   1.545       .  S
C98         H105   1.087       .  S
C98          C99   1.362       .  D
C99         C100   1.544       .  S
C99         C247   1.486       .  S
C100        C104   1.540       .  S
C100        C102   1.563       .  S
C100        H106   1.105       .  S
C101        H107   1.082       .  S
C101        C102   1.386       .  D
C103        H108   1.087       .  S
C103        C104   1.360       .  D
C104        C230   1.489       .  S
Zn109       O113   1.978       .  S
Zn109       O114   2.066       .  S
Zn109       O118   2.050       .  S
Zn109       O125   2.062       .  S
Zn110       O113   1.963       .  S
Zn110       O115   2.027       .  S
Zn110       O117   2.020       .  S
Zn110       O121   2.050       .  S
Zn111       O113   1.973       .  S
Zn111       O116   2.013       .  S
Zn111       O119   2.037       .  S
Zn111       O122   2.057       .  S
Zn112       O113   1.945       .  S
Zn112       O120   1.981       .  S
Zn112       O123   1.989       .  S
Zn112       O124   2.011       .  S
O114        C126   1.280       .  A
O115        C127   1.275       .  A
O116        C128   1.276       .  A
O117        C126   1.274       .  A
O118        C128   1.278       .  A
O119        C127   1.275       .  A
O120        C129   1.267       .  A
O121        C130   1.276       .  A
O122        C129   1.278       .  A
O123        C130   1.270       .  A
O124        C131   1.270       .  A
O125        C131   1.280       .  A
C126        C174   1.486       .  S
C127        C289   1.480       .  S
C128       C1148   1.500       .  S
C129        C160   1.492       .  S
C130        C149   1.471       .  S
C131        C205   1.503       .  S
C132        C138   1.564       .  S
C132        C177   1.578       .  S
C132        C191   1.564       .  S
C132        C356   1.584       .  S
C133        C134   1.535       .  S
C133        C139   1.529       .  S
C133        C137   1.542       .  S
C133        C216   1.545       .  S
C134        H141   1.087       .  S
C134        C135   1.364       .  D
C135        C136   1.542       .  S
C135        C163   1.490       .  S
C136        C140   1.541       .  S
C136        C138   1.565       .  S
C136        H142   1.106       .  S
C137        H143   1.081       .  S
C137        C138   1.386       .  D
C139        H144   1.087       .  S
C139        C140   1.361       .  D
C140        C146   1.486       .  S
C145        C146   1.406       .  A
C145        C150   1.399       .  A
C145        H152   1.083       .  S
C146        C147   1.406       .  A
C147        C148   1.410       .  A
C147        N154   1.430       .  S
C148        C149   1.405       .  A
C148        H153   1.083       .  S
C149        C150   1.406       .  A
C150        N151   1.439       .  S
N151        H155   1.046       .  S
N151        H156   1.045       .  S
N154        H157   1.046       .  S
N154        H158   1.045       .  S
C159        C164   1.408       .  A
C159       C1120   1.407   1_545  A
C159        H166   1.084       .  S
C160        C161   1.423       .  A
C160       C1119   1.407       .  A
C161       C1122   1.396       .  A
C161        N168   1.434       .  S
C162        C163   1.401       .  A
C162       C1121   1.397   1_545  A
C162        H167   1.084       .  S
C163        C164   1.410       .  A
C164        N165   1.430       .  S
N165        H169   1.046       .  S
N165        H170   1.045       .  S
N168        H171   1.046       .  S
N168        H172   1.044       .  S
C173        C174   1.397       .  A
C173        C178   1.405       .  A
C173        H180   1.085       .  S
C174        C655   1.416       .  A
C175        C176   1.409   1_556  A
C175        C654   1.416       .  A
C175        N182   1.438   1_556  S
C176        C177   1.415       .  A
C176        H181   1.080       .  S
C177        C658   1.432   1_554  A
C178        C657   1.431       .  A
C178        N179   1.433       .  S
N179        H183   1.046       .  S
N179        H184   1.046       .  S
N182        H186   1.046       .  S
N182        H665   1.042   1_554  S
H185        N662   1.043       .  S
C187        C188   1.404       .  A
C187        C192   1.399       .  A
C187        H194   1.083       .  S
C188       C1088   1.500   1_545  S
C188       C1629   1.417       .  A
C189       C1628   1.416       .  A
C189       C1150   1.414   1_556  A
C189        N196   1.438       .  S
C190        C191   1.417       .  A
C190       C1149   1.414   1_554  A
C190        H195   1.079       .  S
C191        C672   1.422   1_554  A
C192        C671   1.422       .  A
C192        N193   1.433       .  S
N193        H197   1.045       .  S
N193        H198   1.046       .  S
N196        H199   1.045   1_556  S
N196        H200   1.046   1_556  S
C201        C202   1.409       .  A
C201        C206   1.417       .  A
C201        H208   1.078       .  S
C202        C203   1.420       .  A
C203        C204   1.401       .  A
C203        N210   1.434       .  S
C204        C205   1.401       .  A
C204        H209   1.083       .  S
C205        C206   1.424       .  A
C206        N207   1.438       .  S
N207        H211   1.046       .  S
N207        H212   1.046       .  S
N210        H213   1.046       .  S
N210        H214   1.046       .  S
C215        C216   1.412       .  A
C215        C220   1.417       .  A
C215        H222   1.079       .  S
C216        C217   1.424       .  A
C217        C218   1.401       .  A
C217        N224   1.434       .  S
C218        C219   1.394       .  A
C218        H223   1.084       .  S
C219        C220   1.410       .  A
C220        N221   1.437       .  S
N221        H225   1.046   1_554  S
N221        H226   1.046       .  S
N224        H227   1.046       .  S
N224        H228   1.046       .  S
C229        C230   1.406       .  A
C229        C714   1.409       .  A
C229        H716   1.082       .  S
C230        C231   1.421       .  A
C231        C232   1.401       .  A
C231        N238   1.438       .  S
C232        C713   1.399       .  A
C232        H237   1.084       .  S
C233        C234   1.408       .  A
C233        C712   1.399       .  A
C234        C709   1.409       .  A
C234        N235   1.437   1_556  S
N235        H239   1.046       .  S
N235        H240   1.046       .  S
H236        C709   1.082       .  S
N238        H241   1.042       .  S
N238        H242   1.045       .  S
C243        C248   1.413       .  A
C243       C1684   1.408       .  A
C243       H1690   1.083       .  S
C244       C1683   1.407       .  A
C244       C1205   1.417   1_545  A
C245       C1204   1.418       .  A
C245        C726   1.403       .  A
C245       N1212   1.439   1_556  S
C246        C247   1.400       .  A
C246        C725   1.404       .  A
C246        H251   1.084       .  S
C247        C248   1.410       .  A
C248        N249   1.436       .  S
N249        H253   1.046       .  S
N249        H254   1.045       .  S
H250       C1683   1.083       .  S
N252       C1205   1.439   1_554  S
N252        H255   1.045       .  S
N252       H1216   1.046       .  S
H256       N1212   1.046       .  S
C257        C258   1.421       .  A
C257       C1222   1.406       .  A
C257        H264   1.077       .  S
C258        C259   1.426       .  A
C259        C260   1.401       .  A
C259        N266   1.428       .  S
C260       C1221   1.394       .  A
C260        H265   1.085       .  S
C261        C262   1.410       .  A
C261       C1220   1.394   1_545  A
C262       C1217   1.406   1_545  A
C262        N263   1.439       .  S
N263        H267   1.046       .  S
N263        H268   1.043       .  S
N266        H269   1.046       .  S
N266        H270   1.046       .  S
C271        C272   1.417       .  A
C271        C276   1.406       .  A
C271        H278   1.079       .  S
C272        C273   1.436       .  A
C273        C274   1.408       .  A
C273        N280   1.440       .  S
C274        C275   1.404       .  A
C274        H279   1.084       .  S
C275        C276   1.412       .  A
C276        N277   1.438       .  S
N277        H281   1.046       .  S
N277        H282   1.046       .  S
N280        H283   1.036       .  S
N280        H284   1.045       .  S
C285        C286   1.410       .  A
C285        C290   1.403       .  A
C285        H292   1.064       .  S
C286        C287   1.426       .  A
C287        C288   1.406       .  A
C287        N294   1.432       .  S
C288        C289   1.400   1_655  A
C288        H293   1.084   1_655  S
C289        C290   1.411   1_455  A
C290        N291   1.439       .  S
N291        H295   1.046       .  S
N291        H296   1.042   1_655  S
N294        H297   1.046       .  S
N294        H298   1.045       .  S
C299        C300   1.406       .  A
C299       C1264   1.408       .  A
C299        H306   1.071       .  S
C300        C301   1.409       .  A
C301        C302   1.404       .  A
C301        N308   1.431       .  S
C302       C1263   1.407       .  A
C302        H307   1.084       .  S
C303        C304   1.413       .  A
C303       C1262   1.407       .  A
C304       C1259   1.411       .  A
C304        N305   1.438   1_565  S
N305        H309   1.046       .  S
N305        H310   1.046       .  S
N308        H311   1.046       .  S
N308        H312   1.045       .  S
C313        C314   1.403       .  A
C313        C318   1.400       .  A
C313        H320   1.078       .  S
C314        C315   1.414       .  A
C315        C316   1.402       .  A
C315        N322   1.421       .  S
C316        C317   1.402       .  A
C316        H321   1.084       .  S
C317        C318   1.419       .  A
C318        N319   1.440       .  S
N319        H323   1.046       .  S
N319        H324   1.046       .  S
N322        H325   1.044       .  S
N322        H326   1.042       .  S
C327        C328   1.392       .  A
C327       C1292   1.400       .  A
C327        H334   1.084   1_565  S
C328       C1289   1.407       .  A
C329        C330   1.408       .  A
C329       C1288   1.408       .  A
C329        N816   1.439       .  S
C330        C331   1.420       .  A
C330        H335   1.078       .  S
C331        C332   1.425       .  A
C332       C1287   1.400       .  A
C332       N1293   1.426       .  S
N333       C1292   1.426       .  S
N333        H337   1.046       .  S
N333       H1298   1.046       .  S
N336        C809   1.439       .  S
N336        H339   1.046       .  S
N336        H340   1.046       .  S
H338       N1293   1.046       .  S
C341        C342   1.397       .  A
C341        C346   1.406       .  A
C341        H348   1.084       .  S
C342        C343   1.406       .  A
C343        C344   1.406       .  A
C343        N350   1.439       .  S
C344        C345   1.422       .  A
C344        H349   1.075       .  S
C345        C346   1.442       .  A
C346        N347   1.434       .  S
N347        H351   1.043       .  S
N347        H352   1.035       .  S
N350        H353   1.046       .  S
N350        H354   1.046       .  S
C355        C356   1.421       .  A
C355        C360   1.411       .  A
C355        H362   1.075       .  S
C356        C357   1.430       .  A
C357        C358   1.413       .  A
C357        N364   1.430       .  S
C358        C359   1.397       .  A
C358        H363   1.084       .  S
C359        C360   1.408       .  A
C360        N361   1.439       .  S
N361        H366   1.046   1_455  S
N361        H845   1.046       .  S
N364        H367   1.046       .  S
N364        H368   1.044       .  S
H365        N841   1.046       .  S
C369        C370   1.411       .  A
C369        C374   1.405       .  A
C369        H856   1.074       .  S
C370        C371   1.429       .  A
C371        C372   1.404       .  A
C371        N378   1.435       .  S
C372        C373   1.403       .  A
C372        H377   1.084       .  S
C373        C374   1.416       .  A
C374        N855   1.440       .  S
N375        C854   1.440       .  S
N375        H379   1.046       .  S
N375        H380   1.046       .  S
H376        C849   1.074       .  S
N378        H381   1.041       .  S
N378        H382   1.043       .  S
C383        C384   1.421       .  A
C383        C388   1.408       .  A
C383        H390   1.074       .  S
C384        C385   1.430       .  A
C385        C386   1.409       .  A
C385        N392   1.431       .  S
C386        C387   1.396       .  A
C386        H391   1.084       .  S
C387        C388   1.405       .  A
C388        N389   1.439       .  S
N389        H393   1.046       .  S
N389        H394   1.046       .  S
N392        H395   1.046       .  S
N392        H396   1.044       .  S
C397        C398   1.393       .  A
C397        C402   1.398       .  A
C397        H404   1.085       .  S
C398        C399   1.411       .  A
C399        C400   1.416       .  A
C399        N406   1.438       .  S
C400        C401   1.414       .  A
C400        H405   1.077       .  S
C401        C402   1.423       .  A
C402        N403   1.432       .  S
N403        H407   1.046       .  S
N403        H408   1.046       .  S
N406        H409   1.045       .  S
N406        H410   1.046       .  S
C411        C416   1.415       .  A
C411       C1372   1.410       .  A
C411        H418   1.083   1_545  S
C412        C413   1.414       .  A
C412       C1371   1.410       .  A
C413       C1374   1.398       .  A
C413        N420   1.433       .  S
C414        C415   1.401       .  A
C414       C1373   1.397       .  A
C414        H419   1.085       .  S
C415        C416   1.409       .  A
C416        N417   1.435       .  S
N417        H421   1.046       .  S
N417        H422   1.045       .  S
N420        H423   1.046       .  S
N420        H424   1.046       .  S
C425        C426   1.402       .  A
C425        C430   1.403       .  A
C425        H432   1.082       .  S
C426        C427   1.412       .  A
C427        C428   1.408       .  A
C427        N914   1.437       .  S
C428        C429   1.403       .  A
C428        H433   1.084       .  S
C429        C430   1.418       .  A
C430        N431   1.438       .  S
N431        H435   1.046       .  S
N431        H436   1.044       .  S
N434        C907   1.437       .  S
N434        H437   1.044       .  S
N434        H438   1.045       .  S
C439        C444   1.399       .  A
C439       C1400   1.398       .  A
C439        H446   1.084       .  S
C440        C441   1.410       .  A
C440       C1399   1.397       .  A
C441       C1402   1.411       .  A
C441        N448   1.437       .  S
C442        C443   1.416       .  A
C442       C1401   1.410       .  A
C442        H447   1.079       .  S
C443        C444   1.441       .  A
C444        N445   1.434       .  S
N445        H449   1.042       .  S
N445        H450   1.040       .  S
N448        H451   1.046       .  S
N448        H452   1.046       .  S
C453        C454   1.420       .  A
C453        C458   1.404       .  A
C453        H460   1.077       .  S
C454        C455   1.436       .  A
C455        C456   1.400       .  A
C455        N462   1.433       .  S
C456        C457   1.396       .  A
C456        H461   1.085       .  S
C457        C458   1.410       .  A
C458        N459   1.439       .  S
N459        H463   1.046       .  S
N459        H464   1.043       .  S
N462        H465   1.042       .  S
N462        H466   1.043       .  S
C467        C468   1.396       .  A
C467        C472   1.403       .  A
C467        H474   1.085       .  S
C468        C469   1.404       .  A
C469        C470   1.412       .  A
C469        N476   1.437       .  S
C470        C471   1.417       .  A
C470        H475   1.077       .  S
C471        C472   1.436       .  A
C472        N473   1.433       .  S
N473        H477   1.046       .  S
N473        H478   1.045       .  S
N476        H479   1.045       .  S
N476        H480   1.045       .  S
Zn481       O485   1.956       .  S
Zn481       O486   2.005       .  S
Zn481       O490   2.032       .  S
Zn481       O497   2.027       .  S
Zn482       O485   1.991       .  S
Zn482       O487   2.057       .  S
Zn482       O489   2.053       .  S
Zn482       O493   2.065       .  S
Zn483       O485   1.955       .  S
Zn483       O488   2.031       .  S
Zn483       O491   2.005       .  S
Zn483       O494   2.034       .  S
Zn484       O485   1.961       .  S
Zn484       O492   2.026       .  S
Zn484       O495   1.999       .  S
Zn484       O496   2.020       .  S
O486        C498   1.273       .  A
O487        C499   1.278       .  A
O488        C500   1.274       .  A
O489        C498   1.277       .  A
O490        C500   1.275       .  A
O491        C499   1.273       .  A
O492        C501   1.274       .  A
O493        C502   1.279       .  A
O494        C501   1.277       .  A
O495        C502   1.273       .  A
O496        C503   1.272       .  A
O497        C503   1.273       .  A
C498        C909   1.478       .  S
C499        C892   1.494       .  S
C500        C878   1.479       .  S
C501        C920   1.492       .  S
C502        C948   1.484       .  S
C503        C937   1.475       .  S
C504        C510   1.567       .  S
C504        C864   1.577       .  S
C504        C923   1.581       .  S
C504        C934   1.569       .  S
C505        C506   1.551       .  S
C505        C511   1.529       .  S
C505        C509   1.530       .  S
C505        C850   1.548       .  S
C506        H513   1.080       .  S
C507        C906   1.487       .  S
C508        C510   1.567       .  S
C508        H514   1.104       .  S
C509        H515   1.080       .  S
C509        C510   1.379       .  D
C511        H516   1.087       .  S
C512        C895   1.487       .  S
Zn517       O521   1.963       .  S
Zn517       O522   2.052       .  S
Zn517       O526   2.005       .  S
Zn517       O533   2.009       .  S
Zn518       O521   1.937       .  S
Zn518       O523   1.968       .  S
Zn518       O525   1.987       .  S
Zn518       O529   2.006       .  S
Zn519       O521   1.985       .  S
Zn519       O524   2.065       .  S
Zn519       O527   2.056       .  S
Zn519       O530   2.081       .  S
Zn520       O521   1.955       .  S
Zn520       O528   2.020       .  S
O522        C534   1.277       .  A
O523        C535   1.268       .  A
O524        C536   1.279       .  A
O525        C534   1.269       .  A
O526        C536   1.273       .  A
O527        C535   1.279       .  A
O528        C537   1.275       .  A
O530        C537   1.282       .  A
O531        C538   1.276   1_556  A
O532        C539   1.278       .  A
C534        C853   1.493       .  S
C535        C797   1.488       .  S
C536        C783   1.493   1_545  S
C537        C839   1.490   1_655  S
C538        C822   1.489   1_554  S
C539        C808   1.476   1_544  S
C540        C546   1.580       .  S
C540        C766   1.566       .  S
C540        C811   1.570       .  S
C540        C825   1.588       .  S
C541        C542   1.536       .  S
C541        C547   1.530       .  S
C541        C545   1.536       .  S
C541        C881   1.545       .  S
C542        H549   1.086       .  S
C542        C543   1.365       .  D
C543        C544   1.545       .  S
C543        C794   1.503       .  S
C544        C548   1.554       .  S
C544        C546   1.579       .  S
C544        H550   1.102       .  S
C545        H551   1.077       .  S
C545        C546   1.383       .  D
C547        H552   1.087       .  S
C547        C548   1.361       .  D
C548        C780   1.496       .  S
Zn553       O557   1.969       .  S
Zn553       O558   2.026       .  S
Zn553       O562   2.042       .  S
Zn553       O569   2.016       .  S
Zn554       O557   1.957       .  S
Zn554       O559   2.030       .  S
Zn554       O561   2.022       .  S
Zn554       O565   1.996       .  S
Zn555       O557   1.962       .  S
Zn555       O560   2.023       .  S
Zn555       O563   2.040       .  S
Zn555       O566   2.014       .  S
Zn556       O557   1.994       .  S
Zn556       O564   2.049       .  S
Zn556       O567   2.072       .  S
Zn556       O568   2.071       .  S
O558        C570   1.273       .  A
O559        C571   1.274       .  A
O560        C572   1.274       .  A
O561        C570   1.273       .  A
O562        C572   1.277       .  A
O563        C571   1.275       .  A
O564        C573   1.277       .  A
O565        C574   1.272       .  A
O566        C573   1.273       .  A
O567        C574   1.280       .  A
O568        C575   1.280       .  A
O569        C575   1.274       .  A
C570        C741   1.474       .  S
C571        C699   1.479       .  S
C572        C755   1.499       .  S
C573        C713   1.474       .  S
C574        C724   1.493       .  S
C575        C867   1.483       .  S
C576        C582   1.571       .  S
C576        C738   1.577       .  S
C576        C752   1.572       .  S
C576        C951   1.576       .  S
C577        C578   1.535       .  S
C577        C583   1.531       .  S
C577        C581   1.548       .  S
C577        C682   1.545       .  S
C578        H585   1.087       .  S
C578        C579   1.361       .  D
C579        C580   1.543       .  S
C579        C727   1.485       .  S
C580        C584   1.540       .  S
C580        C582   1.563       .  S
C580        H586   1.105       .  S
C581        H587   1.082       .  S
C581        C582   1.387       .  D
C583        H588   1.087       .  S
C583        C584   1.359       .  D
C584        C710   1.489       .  S
Zn589       O593   1.979       .  S
Zn589       O594   2.066       .  S
Zn589       O598   2.051       .  S
Zn589       O605   2.064       .  S
Zn590       O593   1.964       .  S
Zn590       O595   2.029       .  S
Zn590       O597   2.021       .  S
Zn590       O601   2.051       .  S
Zn591       O593   1.973       .  S
Zn591       O596   2.011       .  S
Zn591       O599   2.037       .  S
Zn591       O602   2.060       .  S
Zn592       O593   1.944       .  S
Zn592       O600   1.983       .  S
Zn592       O603   1.991       .  S
Zn592       O604   2.011       .  S
O594        C606   1.280       .  A
O595        C607   1.275       .  A
O596        C608   1.276       .  A
O597        C606   1.275       .  A
O598        C608   1.278       .  A
O599        C607   1.275       .  A
O600        C609   1.268       .  A
O601        C610   1.276       .  A
O602        C609   1.278       .  A
O603        C610   1.270       .  A
O604        C611   1.270       .  A
O605        C611   1.280       .  A
C606        C654   1.486       .  S
C607        C769   1.480       .  S
C608       C1628   1.499       .  S
C609        C640   1.493       .  S
C610        C629   1.471       .  S
C611        C685   1.504       .  S
C612        C618   1.564       .  S
C612        C657   1.579       .  S
C612        C671   1.565       .  S
C612        C836   1.583       .  S
C613        C614   1.534       .  S
C613        C619   1.530       .  S
C613        C617   1.542       .  S
C613        C696   1.545       .  S
C614        H621   1.087       .  S
C614        C615   1.364       .  D
C615        C616   1.541       .  S
C615        C643   1.489       .  S
C616        C620   1.541       .  S
C616        C618   1.566       .  S
C616        H622   1.106       .  S
C617        H623   1.081       .  S
C617        C618   1.385       .  D
C619        H624   1.087       .  S
C619        C620   1.362       .  D
C620        C626   1.487       .  S
C625        C626   1.406       .  A
C625        C630   1.399       .  A
C625        H632   1.083       .  S
C626        C627   1.406       .  A
C627        C628   1.411       .  A
C627        N634   1.430       .  S
C628        C629   1.405       .  A
C628        H633   1.083       .  S
C629        C630   1.406       .  A
C630        N631   1.439       .  S
N631        H635   1.046       .  S
N631        H636   1.046       .  S
N634        H637   1.046       .  S
N634        H638   1.045       .  S
C639       C1600   1.407   1_545  A
C639        C644   1.409       .  A
C639        H646   1.084       .  S
C640       C1599   1.407       .  A
C640        C641   1.423       .  A
C641       C1602   1.396       .  A
C641        N648   1.434       .  S
C642       C1601   1.396   1_545  A
C642        C643   1.400       .  A
C642        H647   1.084       .  S
C643        C644   1.410       .  A
C644        N645   1.430       .  S
N645        H649   1.046       .  S
N645        H650   1.045       .  S
N648        H651   1.046       .  S
N648        H652   1.044       .  S
C653        C654   1.397       .  A
C653        C658   1.405       .  A
C653        H660   1.085       .  S
C655        C656   1.410       .  A
C655        N662   1.438       .  S
C656        C657   1.415       .  A
C656        H661   1.081       .  S
C658        N659   1.433       .  S
N659        H663   1.045       .  S
N659        H664   1.046       .  S
N662        H666   1.045       .  S
C667        C668   1.404       .  A
C667        C672   1.399       .  A
C667        H674   1.083       .  S
C668       C1568   1.499   1_545  S
C668       C1149   1.416       .  A
C669       C1148   1.417       .  A
C669       C1630   1.414       .  A
C669        N676   1.438       .  S
C670       C1629   1.415       .  A
C670        C671   1.417       .  A
C670        H675   1.079       .  S
C672        N673   1.433       .  S
N673        H677   1.045       .  S
N673        H678   1.046       .  S
N676        H679   1.045       .  S
N676        H680   1.046       .  S
C681        C682   1.409       .  A
C681        C686   1.417       .  A
C681        H688   1.078       .  S
C682        C683   1.420       .  A
C683        C684   1.401       .  A
C683        N690   1.434       .  S
C684        C685   1.401       .  A
C684        H689   1.083       .  S
C685        C686   1.424       .  A
C686        N687   1.438       .  S
N687        H691   1.046       .  S
N687        H692   1.046       .  S
N690        H693   1.046       .  S
N690        H694   1.046       .  S
C695        C696   1.413       .  A
C695        C700   1.417       .  A
C695        H702   1.079       .  S
C696        C697   1.424       .  A
C697        C698   1.401       .  A
C697        N704   1.433       .  S
C698        C699   1.394       .  A
C698        H703   1.084       .  S
C699        C700   1.411       .  A
C700        N701   1.437       .  S
N701        H705   1.046       .  S
N701        H706   1.046       .  S
N704        H707   1.046       .  S
N704        H708   1.046       .  S
C709        C710   1.406       .  A
C710        C711   1.421       .  A
C711        C712   1.401       .  A
C711        N718   1.438       .  S
C712        H717   1.084       .  S
C713        C714   1.408       .  A
C714        N715   1.437       .  S
N715        H719   1.046       .  S
N715        H720   1.046       .  S
N718        H721   1.042       .  S
N718        H722   1.045       .  S
C723       C1204   1.407       .  A
C723        C728   1.413       .  A
C723       H1210   1.083       .  S
C724       C1203   1.408       .  A
C724       C1685   1.418   1_545  A
C725       C1684   1.418       .  A
C725       N1692   1.438       .  S
C726        C727   1.400       .  A
C726        H731   1.084       .  S
C727        C728   1.410       .  A
C728        N729   1.436       .  S
N729        H733   1.046       .  S
N729        H734   1.045       .  S
H730       C1203   1.083       .  S
N732       C1685   1.438       .  S
N732        H735   1.045       .  S
N732       H1696   1.046       .  S
H736       N1692   1.046       .  S
C737        C738   1.421       .  A
C737       C1702   1.406       .  A
C737        H744   1.077       .  S
C738        C739   1.426       .  A
C739        C740   1.401       .  A
C739        N746   1.428       .  S
C740       C1701   1.394       .  A
C740        H745   1.085       .  S
C741       C1700   1.394   1_545  A
C741        C742   1.410       .  A
C742       C1697   1.406   1_545  A
C742        N743   1.439       .  S
N743        H747   1.046       .  S
N743        H748   1.043       .  S
N746        H749   1.046       .  S
N746        H750   1.046       .  S
C751        C752   1.417       .  A
C751        C756   1.406       .  A
C751        H758   1.079       .  S
C752        C753   1.436       .  A
C753        C754   1.408       .  A
C753        N760   1.440       .  S
C754        C755   1.403       .  A
C754        H759   1.084       .  S
C755        C756   1.412       .  A
C756        N757   1.438       .  S
N757        H761   1.046       .  S
N757        H762   1.046       .  S
N760        H763   1.036       .  S
N760        H764   1.045       .  S
C765        C766   1.409       .  A
C765        C770   1.403       .  A
C765        H772   1.065       .  S
C766        C767   1.426       .  A
C767        C768   1.406       .  A
C767        N774   1.432       .  S
C768        C769   1.400   1_655  A
C768        H773   1.084   1_655  S
C769        C770   1.411   1_455  A
C770        N771   1.439       .  S
N771        H775   1.046       .  S
N771        H776   1.042   1_655  S
N774        H777   1.046       .  S
N774        H778   1.045       .  S
C779        C780   1.405       .  A
C779       C1744   1.411       .  A
C779        H786   1.070       .  S
C780        C781   1.408       .  A
C781        C782   1.403       .  A
C781        N788   1.431       .  S
C782       C1743   1.407       .  A
C782        H787   1.084       .  S
C783       C1742   1.407       .  A
C783        C784   1.413       .  A
C784       C1739   1.411       .  A
C784        N785   1.438   1_565  S
N785        H789   1.046       .  S
N785        H790   1.046       .  S
N788        H791   1.046       .  S
N788        H792   1.045       .  S
C793        C794   1.403       .  A
C793        C798   1.399       .  A
C793        H800   1.078       .  S
C794        C795   1.414       .  A
C795        C796   1.402       .  A
C795        N802   1.421       .  S
C796        C797   1.402       .  A
C796        H801   1.084       .  S
C797        C798   1.418       .  A
C798        N799   1.440       .  S
N799        H803   1.046       .  S
N799        H804   1.046       .  S
N802        H805   1.044       .  S
N802        H806   1.042       .  S
C807        C808   1.391       .  A
C807       C1772   1.400       .  A
C807        H814   1.084   1_565  S
C808       C1769   1.408   1_556  A
C809       C1768   1.408   1_554  A
C809        C810   1.408   1_554  A
C810        C811   1.420       .  A
C810        H815   1.078       .  S
C811        C812   1.425       .  A
C812       C1767   1.400       .  A
C812       N1773   1.426       .  S
N813       C1772   1.426       .  S
N813        H817   1.046       .  S
N813       H1778   1.046       .  S
N816        H819   1.046       .  S
N816        H820   1.046       .  S
H818       N1773   1.046       .  S
C821        C822   1.397       .  A
C821        C826   1.406       .  A
C821        H828   1.084       .  S
C822        C823   1.406       .  A
C823        C824   1.405       .  A
C823        N830   1.439       .  S
C824        C825   1.422       .  A
C824        H829   1.075       .  S
C825        C826   1.442       .  A
C826        N827   1.434       .  S
N827        H831   1.043       .  S
N827        H832   1.036       .  S
N830        H833   1.046       .  S
N830        H834   1.046       .  S
C835        C836   1.421       .  A
C835        C840   1.411       .  A
C835        H842   1.076       .  S
C836        C837   1.429       .  A
C837        C838   1.412       .  A
C837        N844   1.430       .  S
C838        C839   1.397       .  A
C838        H843   1.084       .  S
C839        C840   1.408       .  A
C840        N841   1.439       .  S
N841        H846   1.045   1_455  S
N844        H847   1.046       .  S
N844        H848   1.044       .  S
C849        C850   1.411       .  A
C849        C854   1.405       .  A
C850        C851   1.429       .  A
C851        C852   1.404       .  A
C851        N858   1.435       .  S
C852        C853   1.402       .  A
C852        H857   1.084       .  S
C853        C854   1.416       .  A
N855        H859   1.046       .  S
N855        H860   1.046       .  S
N858        H861   1.041       .  S
N858        H862   1.043       .  S
C863        C864   1.421       .  A
C863        C868   1.408       .  A
C863        H870   1.074       .  S
C864        C865   1.430       .  A
C865        C866   1.409       .  A
C865        N872   1.431       .  S
C866        C867   1.396       .  A
C866        H871   1.084       .  S
C867        C868   1.406       .  A
C868        N869   1.439       .  S
N869        H873   1.046       .  S
N869        H874   1.046       .  S
N872        H875   1.045       .  S
N872        H876   1.044       .  S
C877        C878   1.393       .  A
C877        C882   1.399       .  A
C877        H884   1.085       .  S
C878        C879   1.411       .  A
C879        C880   1.416       .  A
C879        N886   1.438       .  S
C880        C881   1.414       .  A
C880        H885   1.077       .  S
C881        C882   1.423       .  A
C882        N883   1.432       .  S
N883        H887   1.046       .  S
N883        H888   1.046       .  S
N886        H889   1.045       .  S
N886        H890   1.046       .  S
C891       C1852   1.410       .  A
C891        C896   1.415   1_556  A
C891        H898   1.083   1_545  S
C892       C1851   1.410       .  A
C892        C893   1.414       .  A
C893       C1854   1.398       .  A
C893        N900   1.433       .  S
C894       C1853   1.398       .  A
C894        C895   1.401   1_556  A
C894        H899   1.085       .  S
C895        C896   1.409       .  A
C896        N897   1.435       .  S
N897        H901   1.046       .  S
N897        H902   1.045       .  S
N900        H903   1.046       .  S
N900        H904   1.046       .  S
C905        C906   1.401   1_556  A
C905        C910   1.403       .  A
C905        H912   1.082       .  S
C906        C907   1.412       .  A
C907        C908   1.408       .  A
C908        C909   1.403   1_554  A
C908        H913   1.084       .  S
C909        C910   1.418       .  A
C910        N911   1.438       .  S
N911        H915   1.046       .  S
N911        H916   1.044       .  S
N914        H917   1.044       .  S
N914        H918   1.046       .  S
C919       C1880   1.398       .  A
C919        C924   1.399       .  A
C919        H926   1.084       .  S
C920       C1879   1.397       .  A
C920        C921   1.410       .  A
C921       C1882   1.410       .  A
C921        N928   1.437       .  S
C922       C1881   1.411       .  A
C922        C923   1.416       .  A
C922        H927   1.080       .  S
C923        C924   1.441       .  A
C924        N925   1.434       .  S
N925        H929   1.042       .  S
N925        H930   1.040       .  S
N928        H931   1.046       .  S
N928        H932   1.046       .  S
C933        C934   1.420       .  A
C933        C938   1.404       .  A
C933        H940   1.077       .  S
C934        C935   1.436       .  A
C935        C936   1.400       .  A
C935        N942   1.433       .  S
C936        C937   1.396       .  A
C936        H941   1.085       .  S
C937        C938   1.410       .  A
C938        N939   1.439       .  S
N939        H943   1.046       .  S
N939        H944   1.043       .  S
N942        H945   1.042       .  S
N942        H946   1.043       .  S
C947        C948   1.397       .  A
C947        C952   1.403       .  A
C947        H954   1.085       .  S
C948        C949   1.404       .  A
C949        C950   1.412       .  A
C949        N956   1.437       .  S
C950        C951   1.417       .  A
C950        H955   1.077       .  S
C951        C952   1.436       .  A
C952        N953   1.433       .  S
N953        H957   1.046       .  S
N953        H958   1.045       .  S
N956        H959   1.045       .  S
N956        H960   1.045       .  S
Zn961       O965   1.956       .  S
Zn961       O966   2.004       .  S
Zn961       O970   2.030       .  S
Zn961       O977   2.026       .  S
Zn962       O965   1.991       .  S
Zn962       O967   2.057       .  S
Zn962       O969   2.053       .  S
Zn962       O973   2.066       .  S
Zn963       O965   1.955       .  S
Zn963       O968   2.031       .  S
Zn963       O971   2.004       .  S
Zn963       O974   2.033       .  S
Zn964       O965   1.960       .  S
Zn964       O972   2.026       .  S
Zn964       O975   2.000       .  S
Zn964       O976   2.022       .  S
O966        C978   1.272       .  A
O967        C979   1.278       .  A
O968        C980   1.274       .  A
O969        C978   1.277       .  A
O970        C980   1.275       .  A
O971        C979   1.273       .  A
O972        C981   1.274       .  A
O973        C982   1.280       .  A
O974        C981   1.276       .  A
O975        C982   1.273       .  A
O976        C983   1.272       .  A
O977        C983   1.273       .  A
C978       C1389   1.478       .  S
C979       C1372   1.493   1_565  S
C980       C1358   1.478       .  S
C981       C1400   1.492   1_565  S
C982       C1428   1.484       .  S
C983       C1417   1.475       .  S
C984        C990   1.567       .  S
C984       C1344   1.577       .  S
C984       C1403   1.581       .  S
C984       C1414   1.569       .  S
C985        C986   1.550       .  S
C985        C991   1.529       .  S
C985        C989   1.530       .  S
C985       C1330   1.548       .  S
C986        H993   1.080       .  S
C986       C1467   1.364       .  D
C987       C1468   1.540       .  S
C987       C1466   1.363       .  D
C987       C1386   1.487       .  S
C988       C1467   1.540       .  S
C988       C1472   1.539       .  S
C988        C990   1.567       .  S
C988        H994   1.104       .  S
C989        H995   1.079       .  S
C989        C990   1.379       .  D
C991        H996   1.087       .  S
C991       C1472   1.360       .  D
C992       C1468   1.539       .  S
C992       C1471   1.360       .  D
C992       C1375   1.488       .  S
Zn997      O1001   1.962       .  S
Zn997      O1002   2.052       .  S
Zn997      O1006   2.003       .  S
Zn997      O1013   2.008       .  S
Zn998      O1001   1.936       .  S
Zn998      O1003   1.969       .  S
Zn998      O1005   1.988       .  S
Zn998      O1009   2.005       .  S
Zn999      O1001   1.984       .  S
Zn999      O1004   2.064       .  S
Zn999      O1007   2.056       .  S
Zn999      O1010   2.082       .  S
Zn1000     O1001   1.955       .  S
Zn1000     O1008   2.018       .  S
Zn1000     O1491   2.044   1_554  S
Zn1000     O1492   2.027       .  S
O1002      C1014   1.277       .  A
O1003      C1015   1.269       .  A
O1004      C1016   1.279       .  A
O1005      C1014   1.269       .  A
O1006      C1016   1.273       .  A
O1007      C1015   1.279       .  A
O1008      C1017   1.275       .  A
O1009      C1498   1.271       .  A
O1010      C1017   1.282       .  A
O1011     Zn1480   2.045       .  S
O1011      C1018   1.276       .  A
O1012     Zn1480   2.028       .  S
O1012      C1019   1.277       .  A
O1013      C1499   1.273       .  A
C1014      C1333   1.493       .  S
C1015      C1277   1.488       .  S
C1016      C1263   1.492       .  S
C1017      C1319   1.490   1_655  S
C1018      O1489   1.272       .  A
C1018      C1302   1.489       .  S
C1019      O1493   1.273       .  A
C1019      C1288   1.475       .  S
C1020      C1026   1.581       .  S
C1020      C1246   1.567       .  S
C1020      C1291   1.571       .  S
C1020      C1305   1.588       .  S
C1021      C1022   1.537       .  S
C1021      C1027   1.530       .  S
C1021      C1025   1.536       .  S
C1021      C1361   1.545       .  S
C1022      H1029   1.086       .  S
C1022      C1023   1.365       .  D
C1023      C1024   1.545       .  S
C1023      C1274   1.504       .  S
C1024      C1028   1.554       .  S
C1024      C1026   1.580       .  S
C1024      H1030   1.102       .  S
C1025      H1031   1.077       .  S
C1025      C1026   1.383       .  D
C1027      H1032   1.087       .  S
C1027      C1028   1.361       .  D
C1028      C1260   1.496       .  S
Zn1033     O1037   1.968       .  S
Zn1033     O1038   2.028       .  S
Zn1033     O1042   2.041       .  S
Zn1033     O1049   2.016       .  S
Zn1034     O1037   1.956       .  S
Zn1034     O1039   2.028       .  S
Zn1034     O1041   2.020       .  S
Zn1034     O1045   1.993       .  S
Zn1035     O1037   1.962       .  S
Zn1035     O1040   2.023       .  S
Zn1035     O1043   2.039       .  S
Zn1035     O1046   2.014       .  S
Zn1036     O1037   1.994       .  S
Zn1036     O1044   2.046       .  S
Zn1036     O1047   2.069       .  S
Zn1036     O1048   2.071       .  S
O1038      C1050   1.273       .  A
O1039      C1051   1.273       .  A
O1040      C1052   1.274       .  A
O1041      C1050   1.273       .  A
O1042      C1052   1.277       .  A
O1043      C1051   1.275       .  A
O1044      C1053   1.276       .  A
O1045      C1054   1.271       .  A
O1046      C1053   1.273       .  A
O1047      C1054   1.279       .  A
O1048      C1055   1.280       .  A
O1049      C1055   1.274       .  A
C1050      C1221   1.475       .  S
C1051      C1179   1.479       .  S
C1052      C1235   1.498       .  S
C1053      C1193   1.473   1_554  S
C1054      C1204   1.492   1_554  S
C1055      C1347   1.483       .  S
C1056      C1062   1.571       .  S
C1056      C1218   1.577       .  S
C1056      C1232   1.573       .  S
C1056      C1431   1.577       .  S
C1057      C1058   1.536       .  S
C1057      C1063   1.531       .  S
C1057      C1061   1.548       .  S
C1057      C1162   1.545       .  S
C1058      H1065   1.087       .  S
C1058      C1059   1.362       .  D
C1059      C1060   1.544       .  S
C1059      C1207   1.486       .  S
C1060      C1064   1.540       .  S
C1060      C1062   1.563       .  S
C1060      H1066   1.105       .  S
C1061      H1067   1.082       .  S
C1061      C1062   1.386       .  D
C1063      H1068   1.087       .  S
C1063      C1064   1.359       .  D
C1064      C1190   1.489       .  S
Zn1069     O1073   1.978       .  S
Zn1069     O1074   2.065       .  S
Zn1069     O1078   2.052       .  S
Zn1069     O1085   2.064       .  S
Zn1070     O1073   1.965       .  S
Zn1070     O1075   2.028       .  S
Zn1070     O1077   2.020       .  S
Zn1070     O1081   2.051       .  S
Zn1071     O1073   1.972       .  S
Zn1071     O1076   2.013       .  S
Zn1071     O1079   2.037       .  S
Zn1071     O1082   2.059       .  S
Zn1072     O1073   1.945       .  S
Zn1072     O1080   1.982       .  S
Zn1072     O1083   1.989       .  S
Zn1072     O1084   2.010       .  S
O1074      C1086   1.280       .  A
O1075      C1087   1.275       .  A
O1076      C1088   1.276       .  A
O1077      C1086   1.275       .  A
O1078      C1088   1.278       .  A
O1079      C1087   1.275       .  A
O1080      C1089   1.268       .  A
O1081      C1090   1.276       .  A
O1082      C1089   1.278       .  A
O1083      C1090   1.270       .  A
O1084      C1091   1.270       .  A
O1085      C1091   1.280       .  A
C1086      C1134   1.485       .  S
C1087      C1249   1.480       .  S
C1089      C1120   1.492       .  S
C1090      C1109   1.471       .  S
C1091      C1165   1.503       .  S
C1092      C1098   1.563       .  S
C1092      C1137   1.578       .  S
C1092      C1151   1.564       .  S
C1092      C1316   1.583       .  S
C1093      C1094   1.534       .  S
C1093      C1099   1.529       .  S
C1093      C1097   1.541       .  S
C1093      C1176   1.544       .  S
C1094      H1101   1.087       .  S
C1094      C1095   1.364       .  D
C1095      C1096   1.541       .  S
C1095      C1123   1.489       .  S
C1096      C1100   1.540       .  S
C1096      C1098   1.565       .  S
C1096      H1102   1.106       .  S
C1097      H1103   1.081       .  S
C1097      C1098   1.385       .  D
C1099      H1104   1.087       .  S
C1099      C1100   1.361       .  D
C1100      C1106   1.486       .  S
C1105      C1106   1.406       .  A
C1105      C1110   1.398       .  A
C1105      H1112   1.083       .  S
C1106      C1107   1.406       .  A
C1107      C1108   1.411       .  A
C1107      N1114   1.430       .  S
C1108      C1109   1.405       .  A
C1108      H1113   1.083       .  S
C1109      C1110   1.406       .  A
C1110      N1111   1.439       .  S
N1111      H1115   1.046       .  S
N1111      H1116   1.046       .  S
N1114      H1117   1.046       .  S
N1114      H1118   1.045       .  S
C1119      C1124   1.408       .  A
C1119      H1126   1.084       .  S
C1120      C1121   1.423       .  A
C1121      N1128   1.434       .  S
C1122      C1123   1.400       .  A
C1122      H1127   1.084       .  S
C1123      C1124   1.410       .  A
C1124      N1125   1.430       .  S
N1125      H1129   1.046       .  S
N1125      H1130   1.045       .  S
N1128      H1131   1.046       .  S
N1128      H1132   1.044       .  S
C1133      C1134   1.397       .  A
C1133      C1138   1.405       .  A
C1133      H1140   1.085       .  S
C1134      C1615   1.416       .  A
C1135      C1614   1.416       .  A
C1135      C1136   1.410   1_556  A
C1135      N1142   1.438   1_556  S
C1136      C1137   1.415       .  A
C1136      H1141   1.081       .  S
C1137      C1618   1.431   1_554  A
C1138      C1617   1.431       .  A
C1138      N1139   1.433       .  S
N1139      H1143   1.045       .  S
N1139      H1144   1.046       .  S
N1142      H1625   1.043   1_554  S
N1142      H1146   1.045       .  S
H1145      N1622   1.043       .  S
C1147      C1148   1.404       .  A
C1147      C1152   1.399       .  A
C1147      H1154   1.083       .  S
C1149      N1156   1.438   1_545  S
C1150      C1151   1.417       .  A
C1150      H1155   1.079       .  S
C1151      C1632   1.422   1_554  A
C1152      C1631   1.422       .  A
C1152      N1153   1.433       .  S
N1153      H1157   1.045       .  S
N1153      H1158   1.046       .  S
N1156      H1159   1.045   1_556  S
N1156      H1160   1.046   1_556  S
C1161      C1162   1.409       .  A
C1161      C1166   1.417       .  A
C1161      H1168   1.078       .  S
C1162      C1163   1.420       .  A
C1163      C1164   1.401       .  A
C1163      N1170   1.434       .  S
C1164      C1165   1.401       .  A
C1164      H1169   1.083       .  S
C1165      C1166   1.424       .  A
C1166      N1167   1.438       .  S
N1167      H1171   1.046       .  S
N1167      H1172   1.046       .  S
N1170      H1173   1.046       .  S
N1170      H1174   1.046       .  S
C1175      C1176   1.412       .  A
C1175      C1180   1.417       .  A
C1175      H1182   1.079       .  S
C1176      C1177   1.424       .  A
C1177      C1178   1.400       .  A
C1177      N1184   1.434       .  S
C1178      C1179   1.393       .  A
C1178      H1183   1.084       .  S
C1179      C1180   1.410       .  A
C1180      N1181   1.437       .  S
N1181      H1185   1.046   1_554  S
N1181      H1186   1.046       .  S
N1184      H1187   1.046       .  S
N1184      H1188   1.046       .  S
C1189      C1190   1.406       .  A
C1189      C1674   1.409       .  A
C1189      H1676   1.082       .  S
C1190      C1191   1.421       .  A
C1191      C1192   1.400       .  A
C1191      N1198   1.438       .  S
C1192      C1673   1.399       .  A
C1192      H1197   1.084       .  S
C1193      C1672   1.399       .  A
C1193      C1194   1.408       .  A
C1194      C1669   1.408       .  A
C1194      N1195   1.437   1_556  S
N1195      H1199   1.046       .  S
N1195      H1200   1.046       .  S
H1196      C1669   1.082       .  S
N1198      H1201   1.042       .  S
N1198      H1202   1.045       .  S
C1203      C1208   1.413   1_545  A
C1205      C1686   1.404       .  A
C1206      C1685   1.404       .  A
C1206      C1207   1.400       .  A
C1206      H1211   1.084       .  S
C1207      C1208   1.411       .  A
C1208      N1209   1.436   1_565  S
N1209      H1213   1.045       .  S
N1209      H1214   1.045       .  S
N1212      H1215   1.045       .  S
C1217      C1218   1.421       .  A
C1217      H1224   1.077       .  S
C1218      C1219   1.426       .  A
C1219      C1220   1.401       .  A
C1219      N1226   1.428       .  S
C1220      H1225   1.085       .  S
C1221      C1222   1.410       .  A
C1222      N1223   1.439       .  S
N1223      H1227   1.046       .  S
N1223      H1228   1.043       .  S
N1226      H1229   1.046       .  S
N1226      H1230   1.046       .  S
C1231      C1232   1.417       .  A
C1231      C1236   1.406       .  A
C1231      H1238   1.079       .  S
C1232      C1233   1.436       .  A
C1233      C1234   1.408       .  A
C1233      N1240   1.440       .  S
C1234      C1235   1.404       .  A
C1234      H1239   1.084       .  S
C1235      C1236   1.412       .  A
C1236      N1237   1.439       .  S
N1237      H1241   1.046       .  S
N1237      H1242   1.046       .  S
N1240      H1243   1.036       .  S
N1240      H1244   1.045       .  S
C1245      C1246   1.409       .  A
C1245      C1250   1.403       .  A
C1245      H1252   1.064       .  S
C1246      C1247   1.426       .  A
C1247      C1248   1.406       .  A
C1247      N1254   1.432       .  S
C1248      C1249   1.400   1_655  A
C1248      H1253   1.084   1_655  S
C1249      C1250   1.411   1_455  A
C1250      N1251   1.439       .  S
N1251      H1255   1.046       .  S
N1251      H1256   1.042   1_655  S
N1254      H1257   1.046       .  S
N1254      H1258   1.045       .  S
C1259      C1260   1.405       .  A
C1259      H1266   1.070       .  S
C1260      C1261   1.408       .  A
C1261      C1262   1.403       .  A
C1261      N1268   1.431       .  S
C1262      H1267   1.084       .  S
C1263      C1264   1.410       .  A
C1264      N1265   1.432       .  S
N1265      H1269   1.046       .  S
N1265      H1270   1.046       .  S
N1268      H1271   1.046       .  S
N1268      H1272   1.045       .  S
C1273      C1274   1.404       .  A
C1273      C1278   1.400       .  A
C1273      H1280   1.078       .  S
C1274      C1275   1.414       .  A
C1275      C1276   1.402       .  A
C1275      N1282   1.421       .  S
C1276      C1277   1.402       .  A
C1276      H1281   1.084       .  S
C1277      C1278   1.418       .  A
C1278      N1279   1.440       .  S
N1279      H1283   1.046       .  S
N1279      H1284   1.046       .  S
N1282      H1285   1.044       .  S
N1282      H1286   1.042       .  S
C1287      C1288   1.392       .  A
C1287      H1294   1.084       .  S
C1289      C1290   1.408       .  A
C1289      N1776   1.439       .  S
C1290      C1291   1.420       .  A
C1290      H1295   1.078       .  S
C1291      C1292   1.425       .  A
N1293      H1297   1.046       .  S
N1296      C1769   1.439       .  S
N1296      H1299   1.046       .  S
N1296      H1300   1.046       .  S
C1301      C1302   1.397       .  A
C1301      C1306   1.406       .  A
C1301      H1308   1.084       .  S
C1302      C1303   1.405       .  A
C1303      C1304   1.405       .  A
C1303      N1310   1.439       .  S
C1304      C1305   1.422       .  A
C1304      H1309   1.075       .  S
C1305      C1306   1.442       .  A
C1306      N1307   1.434       .  S
N1307      H1311   1.044       .  S
N1307      H1312   1.035       .  S
N1310      H1313   1.046       .  S
N1310      H1314   1.046       .  S
C1315      C1316   1.421       .  A
C1315      C1320   1.411       .  A
C1315      H1322   1.075       .  S
C1316      C1317   1.430       .  A
C1317      C1318   1.412       .  A
C1317      N1324   1.430       .  S
C1318      C1319   1.397       .  A
C1318      H1323   1.084       .  S
C1319      C1320   1.408       .  A
C1320      N1321   1.439       .  S
N1321      H1805   1.045       .  S
N1321      H1326   1.046   1_455  S
N1324      H1327   1.046       .  S
N1324      H1328   1.044       .  S
H1325      N1801   1.045       .  S
C1329      C1330   1.411       .  A
C1329      C1334   1.405       .  A
C1329      H1816   1.074       .  S
C1330      C1331   1.429       .  A
C1331      C1332   1.404       .  A
C1331      N1338   1.435       .  S
C1332      C1333   1.403       .  A
C1332      H1337   1.084       .  S
C1333      C1334   1.416       .  A
C1334      N1815   1.440       .  S
N1335      C1814   1.440       .  S
N1335      H1339   1.046       .  S
N1335      H1340   1.046       .  S
H1336      C1809   1.073       .  S
N1338      H1341   1.041       .  S
N1338      H1342   1.043       .  S
C1343      C1344   1.421       .  A
C1343      C1348   1.409       .  A
C1343      H1350   1.074       .  S
C1344      C1345   1.430       .  A
C1345      C1346   1.409       .  A
C1345      N1352   1.431       .  S
C1346      C1347   1.396       .  A
C1346      H1351   1.084       .  S
C1347      C1348   1.406       .  A
C1348      N1349   1.439       .  S
N1349      H1353   1.046       .  S
N1349      H1354   1.046       .  S
N1352      H1355   1.045       .  S
N1352      H1356   1.044       .  S
C1357      C1358   1.393       .  A
C1357      C1362   1.399       .  A
C1357      H1364   1.085       .  S
C1358      C1359   1.411       .  A
C1359      C1360   1.416       .  A
C1359      N1366   1.438       .  S
C1360      C1361   1.414       .  A
C1360      H1365   1.077       .  S
C1361      C1362   1.423       .  A
C1362      N1363   1.431       .  S
N1363      H1367   1.046       .  S
N1363      H1368   1.046       .  S
N1366      H1369   1.045       .  S
N1366      H1370   1.046       .  S
C1371      C1376   1.415       .  A
C1371      H1378   1.083       .  S
C1372      C1373   1.414       .  A
C1373      N1380   1.433       .  S
C1374      C1375   1.401       .  A
C1374      H1379   1.085       .  S
C1375      C1376   1.409       .  A
C1376      N1377   1.435       .  S
N1377      H1381   1.046       .  S
N1377      H1382   1.045       .  S
N1380      H1383   1.046       .  S
N1380      H1384   1.046       .  S
C1385      C1386   1.401       .  A
C1385      C1390   1.402       .  A
C1385      H1392   1.082       .  S
C1386      C1387   1.412       .  A
C1387      C1388   1.408       .  A
C1387      N1874   1.437       .  S
C1388      C1389   1.403       .  A
C1388      H1393   1.084       .  S
C1389      C1390   1.417       .  A
C1390      N1391   1.438       .  S
N1391      H1395   1.046       .  S
N1391      H1396   1.044       .  S
N1394      C1867   1.437       .  S
N1394      H1397   1.044       .  S
N1394      H1398   1.046       .  S
C1399      C1404   1.399       .  A
C1399      H1406   1.084       .  S
C1400      C1401   1.410       .  A
C1401      N1408   1.437   1_545  S
C1402      C1403   1.416       .  A
C1402      H1407   1.080       .  S
C1403      C1404   1.441       .  A
C1404      N1405   1.434       .  S
N1405      H1409   1.042       .  S
N1405      H1410   1.039       .  S
N1408      H1411   1.046       .  S
N1408      H1412   1.046       .  S
C1413      C1414   1.420       .  A
C1413      C1418   1.405       .  A
C1413      H1420   1.077       .  S
C1414      C1415   1.436       .  A
C1415      C1416   1.400       .  A
C1415      N1422   1.433       .  S
C1416      C1417   1.396       .  A
C1416      H1421   1.085       .  S
C1417      C1418   1.410       .  A
C1418      N1419   1.439       .  S
N1419      H1423   1.046       .  S
N1419      H1424   1.043       .  S
N1422      H1425   1.042       .  S
N1422      H1426   1.043       .  S
C1427      C1428   1.397       .  A
C1427      C1432   1.403       .  A
C1427      H1434   1.085       .  S
C1428      C1429   1.404       .  A
C1429      C1430   1.412       .  A
C1429      N1436   1.437       .  S
C1430      C1431   1.417       .  A
C1430      H1435   1.077       .  S
C1431      C1432   1.436       .  A
C1432      N1433   1.433       .  S
N1433      H1437   1.046       .  S
N1433      H1438   1.045       .  S
N1436      H1439   1.045       .  S
N1436      H1440   1.045       .  S
Zn1441     O1445   1.957       .  S
Zn1441     O1446   2.006       .  S
Zn1441     O1450   2.032       .  S
Zn1441     O1457   2.027       .  S
Zn1442     O1445   1.991       .  S
Zn1442     O1447   2.057       .  S
Zn1442     O1449   2.052       .  S
Zn1442     O1453   2.065       .  S
Zn1443     O1445   1.955       .  S
Zn1443     O1448   2.032       .  S
Zn1443     O1451   2.006       .  S
Zn1443     O1454   2.034       .  S
Zn1444     O1445   1.962       .  S
Zn1444     O1452   2.026       .  S
Zn1444     O1455   1.999       .  S
Zn1444     O1456   2.020       .  S
O1446      C1458   1.273       .  A
O1447      C1459   1.278       .  A
O1448      C1460   1.274       .  A
O1449      C1458   1.277       .  A
O1450      C1460   1.275       .  A
O1451      C1459   1.273       .  A
O1452      C1461   1.274       .  A
O1453      C1462   1.279       .  A
O1454      C1461   1.277       .  A
O1455      C1462   1.273       .  A
O1456      C1463   1.272       .  A
O1457      C1463   1.273       .  A
C1458      C1869   1.477       .  S
C1459      C1852   1.493   1_565  S
C1460      C1838   1.479       .  S
C1461      C1880   1.492   1_565  S
C1462      C1908   1.484       .  S
C1463      C1897   1.475       .  S
C1464      C1470   1.567       .  S
C1464      C1824   1.577       .  S
C1464      C1883   1.581       .  S
C1464      C1894   1.568       .  S
C1465      C1466   1.551       .  S
C1465      C1471   1.529       .  S
C1465      C1469   1.530       .  S
C1465      C1810   1.548       .  S
C1466      H1473   1.080       .  S
C1467      C1866   1.487       .  S
C1468      C1470   1.567       .  S
C1468      H1474   1.104       .  S
C1469      H1475   1.079       .  S
C1469      C1470   1.379       .  D
C1471      H1476   1.087       .  S
C1472      C1855   1.488       .  S
Zn1477     O1481   1.963       .  S
Zn1477     O1482   2.052       .  S
Zn1477     O1486   2.004       .  S
Zn1477     O1493   2.008       .  S
Zn1478     O1481   1.936       .  S
Zn1478     O1483   1.969       .  S
Zn1478     O1485   1.986       .  S
Zn1478     O1489   2.006       .  S
Zn1479     O1481   1.984       .  S
Zn1479     O1484   2.062       .  S
Zn1479     O1487   2.057       .  S
Zn1479     O1490   2.082       .  S
Zn1480     O1481   1.954       .  S
Zn1480     O1488   2.021       .  S
O1482      C1494   1.277       .  A
O1483      C1495   1.269       .  A
O1484      C1496   1.279       .  A
O1485      C1494   1.269       .  A
O1486      C1496   1.273       .  A
O1487      C1495   1.279       .  A
O1488      C1497   1.275       .  A
O1490      C1497   1.282       .  A
O1491      C1498   1.275   1_556  A
O1492      C1499   1.277       .  A
C1494      C1813   1.493       .  S
C1495      C1757   1.489       .  S
C1496      C1743   1.492       .  S
C1497      C1799   1.491   1_655  S
C1498      C1782   1.488   1_554  S
C1499      C1768   1.475   1_554  S
C1500      C1506   1.581       .  S
C1500      C1726   1.567       .  S
C1500      C1771   1.571       .  S
C1500      C1785   1.587       .  S
C1501      C1502   1.536       .  S
C1501      C1507   1.530       .  S
C1501      C1505   1.536       .  S
C1501      C1841   1.546       .  S
C1502      H1509   1.086       .  S
C1502      C1503   1.364       .  D
C1503      C1504   1.545       .  S
C1503      C1754   1.504       .  S
C1504      C1508   1.555       .  S
C1504      C1506   1.579       .  S
C1504      H1510   1.102       .  S
C1505      H1511   1.077       .  S
C1505      C1506   1.384       .  D
C1507      H1512   1.087       .  S
C1507      C1508   1.361       .  D
C1508      C1740   1.496       .  S
Zn1513     O1517   1.968       .  S
Zn1513     O1518   2.026       .  S
Zn1513     O1522   2.041       .  S
Zn1513     O1529   2.014       .  S
Zn1514     O1517   1.956       .  S
Zn1514     O1519   2.028       .  S
Zn1514     O1521   2.021       .  S
Zn1514     O1525   1.996       .  S
Zn1515     O1517   1.962       .  S
Zn1515     O1520   2.022       .  S
Zn1515     O1523   2.039       .  S
Zn1515     O1526   2.014       .  S
Zn1516     O1517   1.993       .  S
Zn1516     O1524   2.045       .  S
Zn1516     O1527   2.070       .  S
Zn1516     O1528   2.070       .  S
O1518      C1530   1.273       .  A
O1519      C1531   1.273       .  A
O1520      C1532   1.274       .  A
O1521      C1530   1.273       .  A
O1522      C1532   1.277       .  A
O1523      C1531   1.275       .  A
O1524      C1533   1.276       .  A
O1525      C1534   1.272       .  A
O1526      C1533   1.273       .  A
O1527      C1534   1.279       .  A
O1528      C1535   1.280       .  A
O1529      C1535   1.274       .  A
C1530      C1701   1.474       .  S
C1531      C1659   1.478       .  S
C1532      C1715   1.498       .  S
C1533      C1673   1.473       .  S
C1534      C1684   1.493       .  S
C1535      C1827   1.482       .  S
C1536      C1542   1.571       .  S
C1536      C1698   1.577       .  S
C1536      C1712   1.572       .  S
C1536      C1911   1.577       .  S
C1537      C1538   1.535       .  S
C1537      C1543   1.531       .  S
C1537      C1541   1.548       .  S
C1537      C1642   1.544       .  S
C1538      H1545   1.087       .  S
C1538      C1539   1.361       .  D
C1539      C1540   1.544       .  S
C1539      C1687   1.485       .  S
C1540      C1544   1.540       .  S
C1540      C1542   1.563       .  S
C1540      H1546   1.105       .  S
C1541      H1547   1.082       .  S
C1541      C1542   1.386       .  D
C1543      H1548   1.087       .  S
C1543      C1544   1.360       .  D
C1544      C1670   1.489       .  S
Zn1549     O1553   1.977       .  S
Zn1549     O1554   2.066       .  S
Zn1549     O1558   2.051       .  S
Zn1549     O1565   2.062       .  S
Zn1550     O1553   1.964       .  S
Zn1550     O1555   2.028       .  S
Zn1550     O1557   2.022       .  S
Zn1550     O1561   2.051       .  S
Zn1551     O1553   1.973       .  S
Zn1551     O1556   2.011       .  S
Zn1551     O1559   2.035       .  S
Zn1551     O1562   2.058       .  S
Zn1552     O1553   1.945       .  S
Zn1552     O1560   1.982       .  S
Zn1552     O1563   1.989       .  S
Zn1552     O1564   2.009       .  S
O1554      C1566   1.279       .  A
O1555      C1567   1.275       .  A
O1556      C1568   1.276       .  A
O1557      C1566   1.275       .  A
O1558      C1568   1.278       .  A
O1559      C1567   1.275       .  A
O1560      C1569   1.268       .  A
O1561      C1570   1.276       .  A
O1562      C1569   1.278       .  A
O1563      C1570   1.270       .  A
O1564      C1571   1.270       .  A
O1565      C1571   1.280       .  A
C1566      C1614   1.486       .  S
C1567      C1729   1.479       .  S
C1569      C1600   1.492       .  S
C1570      C1589   1.470       .  S
C1571      C1645   1.503       .  S
C1572      C1578   1.564       .  S
C1572      C1617   1.578       .  S
C1572      C1631   1.565       .  S
C1572      C1796   1.584       .  S
C1573      C1574   1.534       .  S
C1573      C1579   1.529       .  S
C1573      C1577   1.542       .  S
C1573      C1656   1.544       .  S
C1574      H1581   1.087       .  S
C1574      C1575   1.364       .  D
C1575      C1576   1.541       .  S
C1575      C1603   1.490       .  S
C1576      C1580   1.541       .  S
C1576      C1578   1.565       .  S
C1576      H1582   1.106       .  S
C1577      H1583   1.081       .  S
C1577      C1578   1.386       .  D
C1579      H1584   1.087       .  S
C1579      C1580   1.361       .  D
C1580      C1586   1.486       .  S
C1585      C1586   1.406       .  A
C1585      C1590   1.399       .  A
C1585      H1592   1.083       .  S
C1586      C1587   1.406       .  A
C1587      C1588   1.410       .  A
C1587      N1594   1.430       .  S
C1588      C1589   1.405       .  A
C1588      H1593   1.083       .  S
C1589      C1590   1.406       .  A
C1590      N1591   1.439       .  S
N1591      H1595   1.046       .  S
N1591      H1596   1.045       .  S
N1594      H1597   1.046       .  S
N1594      H1598   1.045       .  S
C1599      C1604   1.409       .  A
C1599      H1606   1.084       .  S
C1600      C1601   1.423       .  A
C1601      N1608   1.434       .  S
C1602      C1603   1.400       .  A
C1602      H1607   1.084       .  S
C1603      C1604   1.410       .  A
C1604      N1605   1.430       .  S
N1605      H1609   1.046       .  S
N1605      H1610   1.045       .  S
N1608      H1611   1.046       .  S
N1608      H1612   1.044       .  S
C1613      C1614   1.397       .  A
C1613      C1618   1.405       .  A
C1613      H1620   1.085       .  S
C1615      C1616   1.409       .  A
C1615      N1622   1.438       .  S
C1616      C1617   1.415       .  A
C1616      H1621   1.080       .  S
C1618      N1619   1.433       .  S
N1619      H1623   1.045       .  S
N1619      H1624   1.046       .  S
N1622      H1626   1.045       .  S
C1627      C1628   1.404       .  A
C1627      C1632   1.399       .  A
C1627      H1634   1.083       .  S
C1629      N1636   1.438   1_545  S
C1630      C1631   1.417       .  A
C1630      H1635   1.079       .  S
C1632      N1633   1.433       .  S
N1633      H1637   1.045       .  S
N1633      H1638   1.046       .  S
N1636      H1639   1.045       .  S
N1636      H1640   1.046       .  S
C1641      C1642   1.409       .  A
C1641      C1646   1.417       .  A
C1641      H1648   1.078       .  S
C1642      C1643   1.420       .  A
C1643      C1644   1.401       .  A
C1643      N1650   1.434       .  S
C1644      C1645   1.401       .  A
C1644      H1649   1.083       .  S
C1645      C1646   1.424       .  A
C1646      N1647   1.438       .  S
N1647      H1651   1.046       .  S
N1647      H1652   1.046       .  S
N1650      H1653   1.046       .  S
N1650      H1654   1.046       .  S
C1655      C1656   1.412       .  A
C1655      C1660   1.417       .  A
C1655      H1662   1.079       .  S
C1656      C1657   1.424       .  A
C1657      C1658   1.400       .  A
C1657      N1664   1.434       .  S
C1658      C1659   1.393       .  A
C1658      H1663   1.084       .  S
C1659      C1660   1.410       .  A
C1660      N1661   1.437       .  S
N1661      H1665   1.046       .  S
N1661      H1666   1.045       .  S
N1664      H1667   1.046       .  S
N1664      H1668   1.046       .  S
C1669      C1670   1.406       .  A
C1670      C1671   1.421       .  A
C1671      C1672   1.400       .  A
C1671      N1678   1.438       .  S
C1672      H1677   1.084       .  S
C1673      C1674   1.408       .  A
C1674      N1675   1.437       .  S
N1675      H1679   1.046       .  S
N1675      H1680   1.045       .  S
N1678      H1681   1.042       .  S
N1678      H1682   1.045       .  S
C1683      C1688   1.413   1_545  A
C1686      C1687   1.400       .  A
C1686      H1691   1.084       .  S
C1687      C1688   1.410       .  A
C1688      N1689   1.436   1_565  S
N1689      H1693   1.046       .  S
N1689      H1694   1.045       .  S
N1692      H1695   1.045       .  S
C1697      C1698   1.421       .  A
C1697      H1704   1.077       .  S
C1698      C1699   1.426       .  A
C1699      C1700   1.401       .  A
C1699      N1706   1.428       .  S
C1700      H1705   1.085       .  S
C1701      C1702   1.410       .  A
C1702      N1703   1.439       .  S
N1703      H1707   1.046       .  S
N1703      H1708   1.043       .  S
N1706      H1709   1.046       .  S
N1706      H1710   1.046       .  S
C1711      C1712   1.417       .  A
C1711      C1716   1.406       .  A
C1711      H1718   1.079       .  S
C1712      C1713   1.436       .  A
C1713      C1714   1.408       .  A
C1713      N1720   1.440       .  S
C1714      C1715   1.404       .  A
C1714      H1719   1.084       .  S
C1715      C1716   1.412       .  A
C1716      N1717   1.438       .  S
N1717      H1721   1.046       .  S
N1717      H1722   1.046       .  S
N1720      H1723   1.035       .  S
N1720      H1724   1.045       .  S
C1725      C1726   1.409       .  A
C1725      C1730   1.403       .  A
C1725      H1732   1.064       .  S
C1726      C1727   1.426       .  A
C1727      C1728   1.406       .  A
C1727      N1734   1.432       .  S
C1728      C1729   1.400   1_655  A
C1728      H1733   1.084   1_655  S
C1729      C1730   1.411   1_455  A
C1730      N1731   1.439       .  S
N1731      H1735   1.046       .  S
N1731      H1736   1.042   1_655  S
N1734      H1737   1.046       .  S
N1734      H1738   1.045       .  S
C1739      C1740   1.406       .  A
C1739      H1746   1.069       .  S
C1740      C1741   1.407       .  A
C1741      C1742   1.403       .  A
C1741      N1748   1.431       .  S
C1742      H1747   1.084       .  S
C1743      C1744   1.413       .  A
C1744      N1745   1.438       .  S
N1745      H1749   1.046       .  S
N1745      H1750   1.046       .  S
N1748      H1751   1.046       .  S
N1748      H1752   1.045       .  S
C1753      C1754   1.403       .  A
C1753      C1758   1.400       .  A
C1753      H1760   1.078       .  S
C1754      C1755   1.414       .  A
C1755      C1756   1.403       .  A
C1755      N1762   1.421       .  S
C1756      C1757   1.403       .  A
C1756      H1761   1.084       .  S
C1757      C1758   1.419       .  A
C1758      N1759   1.440       .  S
N1759      H1763   1.046       .  S
N1759      H1764   1.046       .  S
N1762      H1765   1.044       .  S
N1762      H1766   1.042       .  S
C1767      C1768   1.391       .  A
C1767      H1774   1.084       .  S
C1769      C1770   1.409   1_554  A
C1770      C1771   1.420       .  A
C1770      H1775   1.078       .  S
C1771      C1772   1.424       .  A
N1773      H1777   1.046       .  S
N1776      H1779   1.046       .  S
N1776      H1780   1.046       .  S
C1781      C1782   1.397       .  A
C1781      C1786   1.406       .  A
C1781      H1788   1.084       .  S
C1782      C1783   1.405       .  A
C1783      C1784   1.405       .  A
C1783      N1790   1.439       .  S
C1784      C1785   1.421       .  A
C1784      H1789   1.075       .  S
C1785      C1786   1.442       .  A
C1786      N1787   1.434       .  S
N1787      H1791   1.044       .  S
N1787      H1792   1.035       .  S
N1790      H1793   1.046       .  S
N1790      H1794   1.046       .  S
C1795      C1796   1.421       .  A
C1795      C1800   1.411       .  A
C1795      H1802   1.075       .  S
C1796      C1797   1.429       .  A
C1797      C1798   1.413       .  A
C1797      N1804   1.430       .  S
C1798      C1799   1.397       .  A
C1798      H1803   1.084       .  S
C1799      C1800   1.408       .  A
C1800      N1801   1.439       .  S
N1801      H1806   1.046   1_455  S
N1804      H1807   1.046       .  S
N1804      H1808   1.044       .  S
C1809      C1810   1.411       .  A
C1809      C1814   1.404       .  A
C1810      C1811   1.429       .  A
C1811      C1812   1.404       .  A
C1811      N1818   1.435       .  S
C1812      C1813   1.403       .  A
C1812      H1817   1.084       .  S
C1813      C1814   1.415       .  A
N1815      H1819   1.046       .  S
N1815      H1820   1.046       .  S
N1818      H1821   1.042       .  S
N1818      H1822   1.043       .  S
C1823      C1824   1.420       .  A
C1823      C1828   1.408       .  A
C1823      H1830   1.074       .  S
C1824      C1825   1.430       .  A
C1825      C1826   1.408       .  A
C1825      N1832   1.431       .  S
C1826      C1827   1.395       .  A
C1826      H1831   1.084       .  S
C1827      C1828   1.406       .  A
C1828      N1829   1.439       .  S
N1829      H1833   1.046       .  S
N1829      H1834   1.045       .  S
N1832      H1835   1.046       .  S
N1832      H1836   1.044       .  S
C1837      C1838   1.393       .  A
C1837      C1842   1.399       .  A
C1837      H1844   1.085       .  S
C1838      C1839   1.411       .  A
C1839      C1840   1.416       .  A
C1839      N1846   1.438       .  S
C1840      C1841   1.414       .  A
C1840      H1845   1.078       .  S
C1841      C1842   1.423       .  A
C1842      N1843   1.432       .  S
N1843      H1847   1.046       .  S
N1843      H1848   1.046       .  S
N1846      H1849   1.045       .  S
N1846      H1850   1.046       .  S
C1851      C1856   1.415   1_556  A
C1851      H1858   1.083       .  S
C1852      C1853   1.414       .  A
C1853      N1860   1.433       .  S
C1854      C1855   1.401   1_556  A
C1854      H1859   1.085       .  S
C1855      C1856   1.409       .  A
C1856      N1857   1.435       .  S
N1857      H1861   1.046       .  S
N1857      H1862   1.045       .  S
N1860      H1863   1.046       .  S
N1860      H1864   1.046       .  S
C1865      C1866   1.401   1_556  A
C1865      C1870   1.403       .  A
C1865      H1872   1.082       .  S
C1866      C1867   1.412       .  A
C1867      C1868   1.408       .  A
C1868      C1869   1.403   1_554  A
C1868      H1873   1.084       .  S
C1869      C1870   1.417       .  A
C1870      N1871   1.438       .  S
N1871      H1875   1.046       .  S
N1871      H1876   1.044       .  S
N1874      H1877   1.044       .  S
N1874      H1878   1.046       .  S
C1879      C1884   1.399       .  A
C1879      H1886   1.084       .  S
C1880      C1881   1.410       .  A
C1881      N1888   1.437   1_545  S
C1882      C1883   1.416       .  A
C1882      H1887   1.079       .  S
C1883      C1884   1.442       .  A
C1884      N1885   1.434       .  S
N1885      H1889   1.042       .  S
N1885      H1890   1.039       .  S
N1888      H1891   1.046       .  S
N1888      H1892   1.046       .  S
C1893      C1894   1.420       .  A
C1893      C1898   1.404       .  A
C1893      H1900   1.077       .  S
C1894      C1895   1.436       .  A
C1895      C1896   1.400       .  A
C1895      N1902   1.433       .  S
C1896      C1897   1.396       .  A
C1896      H1901   1.085       .  S
C1897      C1898   1.410       .  A
C1898      N1899   1.439       .  S
N1899      H1903   1.046       .  S
N1899      H1904   1.043       .  S
N1902      H1905   1.042       .  S
N1902      H1906   1.043       .  S
C1907      C1908   1.397       .  A
C1907      C1912   1.403       .  A
C1907      H1914   1.085       .  S
C1908      C1909   1.404       .  A
C1909      C1910   1.412       .  A
C1909      N1916   1.437       .  S
C1910      C1911   1.417       .  A
C1910      H1915   1.077       .  S
C1911      C1912   1.437       .  A
C1912      N1913   1.433       .  S
N1913      H1917   1.046       .  S
N1913      H1918   1.045       .  S
N1916      H1919   1.045       .  S
N1916      H1920   1.045       .  S
