geometry optimzed in LAMMPS
_audit_creation_date              2020-11-30 
_audit_creation_method            'lammps2cif' 
_symmetry_space_group_name_H-M    'P1' 
_symmetry_Int_Tables_number       1 
_symmetry_cell_setting            triclinic 
loop_ 
_symmetry_equiv_pos_as_xyz 
  x,y,z 
_cell_length_a                    36.52455672733522 
_cell_length_b                    35.7110828082456 
_cell_length_c                    39.61542687455 
_cell_angle_alpha                 90.1366009763928 
_cell_angle_beta                  90.37791536576653 
_cell_angle_gamma                 87.76679062556519 
loop_ 
_atom_site_label 
_atom_site_type_symbol 
_atom_site_fract_x 
_atom_site_fract_y 
_atom_site_fract_z 
_atom_site_charge 
O1          O  0.43522066  0.48889064  0.46454400    -0.80040
O2          O  0.08527309  0.02858416  0.48697201    -0.80060
O3          O  0.48934562  0.05088149  0.45189143    -0.80070
O4          O  0.00702960  0.44310434  0.44844092    -0.80010
O5          O  0.02810473  0.07894499  0.48553173    -0.80130
O6          O  0.46880263  0.42179962  0.48400007    -0.80050
O7          O  0.06095461  0.49155881  0.44941213    -0.80040
O8          O  0.41896473  0.04826565  0.47426116    -0.80080
C9          C  0.41347711  0.51777684  0.45898569     1.09650
C10         C  0.08535297  0.01380375  0.45762704     1.09540
C11         C  0.51039504  0.07763222  0.45767407     1.09670
C12         C  0.98529158  0.41822873  0.45623045     1.09550
O13         O  0.48810645  0.44964926  0.54832111    -0.80040
O14         O  0.00563757  0.05334154  0.55267845    -0.80120
O15         O  0.43419174  0.01451493  0.53350901    -0.80050
O16         O  0.08638370  0.46439505  0.51459064    -0.80030
O17         O  0.06040367  0.00141890  0.55210083    -0.80080
O18         O  0.41852838  0.45619490  0.52365867    -0.80050
O19         O  0.02878715  0.41793787  0.51712973    -0.80010
O20         O  0.46815214  0.07880664  0.51653009    -0.80080
Co21       Co  0.46411433  0.47154186  0.50806221     1.51530
Co22       Co  0.04279432  0.03828701  0.51906320     1.51690
Co23       Co  0.46428996  0.02992462  0.49115238     1.51570
Co24       Co  0.04357657  0.45663503  0.48275739     1.51470
O25         O  0.51010461  0.49886301  0.50018662    -1.41970
C26         C  0.00937484  0.42124838  0.54379652     1.09580
C27         C  0.48470283  0.08056723  0.54458249     1.09670
C28         C  0.41289582  0.48699505  0.53891866     1.09610
C29         C  0.08661611  0.97972451  0.54361839     1.09580
C30         C  0.49727132  0.21243811  0.37651454     0.03230
C31         C  0.49788122  0.21309277  0.34104812    -0.12920
C32         C  0.49377674  0.24713427  0.32344167     0.00730
C33         C  0.48876906  0.28067631  0.34173284    -0.11450
C34         C  0.48882307  0.28076276  0.37722690     0.03220
C35         C  0.49286322  0.24640984  0.39439810    -0.10870
H36         H  0.50277483  0.18721613  0.32718588     0.08820
H37         H  0.48477795  0.30683650  0.32817898     0.06340
H38         H  0.49310815  0.24610698  0.42175225     0.06190
C39         C  0.28300439  0.50669650  0.37786052     0.03230
C40         C  0.24966545  0.00953503  0.39499313    -0.12920
C41         C  0.21636147  0.51274972  0.37727548     0.00730
C42         C  0.21679117  0.51008950  0.34189575    -0.11450
C43         C  0.24990657  0.50404896  0.32451257     0.03220
C44         C  0.28307896  0.50301803  0.34265800    -0.10870
H45         H  0.24982612  0.00957540  0.42231393     0.08820
H46         H  0.19137658  0.51320534  0.32776963     0.06340
H47         H  0.30888984  0.49997478  0.32940705     0.06190
C48         C  0.28511234  0.49532732  0.62191024     0.03230
C49         C  0.25194449  0.49095473  0.60480129    -0.12840
C50         C  0.21924711  0.48805089  0.62283480     0.00730
C51         C  0.22025288  0.48977704  0.65828433    -0.11450
C52         C  0.25334807  0.49518254  0.67550490     0.03220
C53         C  0.28577600  0.49770032  0.65707852    -0.10870
H54         H  0.25179726  0.98939749  0.57747153     0.08820
H55         H  0.19547883  0.48604005  0.67255181     0.06340
H56         H  0.31164580  0.50122726  0.67005186     0.06190
C57         C  0.48638865  0.21936728  0.62097956     0.03230
C58         C  0.48971986  0.25350113  0.60397280    -0.12920
C59         C  0.49478460  0.28676304  0.62211821     0.00730
C60         C  0.49573293  0.28595539  0.65756612    -0.11450
C61         C  0.49169421  0.25208667  0.67501465     0.03220
C62         C  0.48751441  0.21890228  0.65642296    -0.10870
H63         H  0.48946280  0.25406413  0.57661925     0.08820
H64         H  0.49974669  0.31164718  0.67148029     0.06340
H65         H  0.48475319  0.19258087  0.66955905     0.06190
C66         C  0.24304966  0.45842816  0.12673467     0.03230
C67         C  0.24579865  0.45967242  0.16199288    -0.12920
C68         C  0.24599006  0.49424799  0.17894153     0.00730
C69         C  0.24251847  0.02758826  0.16028924    -0.11450
C70         C  0.23947447  0.02664882  0.12501240     0.03220
C71         C  0.24041073  0.49194054  0.10836224    -0.10870
H72         H  0.24851565  0.43376273  0.17613719     0.08820
H73         H  0.24120730  0.05433308  0.17329777     0.06340
H74         H  0.23889483  0.49091164  0.08105123     0.06190
O75         O  0.25942067  0.29722264  0.04772263    -0.80040
O76         O  0.20083428  0.16657926  0.02458571    -0.80060
O77         O  0.16565108  0.27897163  0.01744024    -0.80070
O78         O  0.30998284  0.24331220  0.04892016    -0.80010
O79         O  0.19752702  0.23833314  0.04747647    -0.80130
O80         O  0.32973399  0.29568492  0.02590357    -0.80050
O81         O  0.25145006  0.18786005  0.04816501    -0.80040
O82         O  0.21888449  0.33077917  0.01890444    -0.80080
C83         C  0.23826986  0.32573940  0.04523275     1.09650
C84         C  0.22701400  0.16248449  0.04581925     1.09540
C85         C  0.16934798  0.25946493  0.04399078     1.09670
C86         C  0.33427217  0.26884962  0.04676945     1.09550
O87         O  0.31010849  0.27270906  0.96238256    -0.80040
O88         O  0.16434512  0.22022438  0.98185407    -0.80120
O89         O  0.23544261  0.31347048  0.94906789    -0.80050
O90         O  0.27628512  0.16890618  0.98039459    -0.80030
O91         O  0.22303910  0.18713108  0.96223962    -0.80080
O92         O  0.27678339  0.33291540  0.98401160    -0.80050
O93         O  0.32699202  0.21864768  0.98127174    -0.80010
O94         O  0.18361060  0.26270340  0.94772546    -0.80080
Co95       Co  0.28478448  0.28213078  0.00559959     1.51530
Co96       Co  0.21364010  0.21249622  0.00515636     1.51690
Co97       Co  0.20383561  0.29365383  0.98372621     1.51570
Co98       Co  0.28550983  0.21033101  0.01258312     1.51470
O99         O  0.24439901  0.25240352  0.99120648    -1.41970
C100        C  0.33090283  0.24431498  0.96019711     1.09580
C101        C  0.16018614  0.23912632  0.95481492     1.09670
C102        C  0.25853531  0.33718973  0.95681181     1.09610
C103        C  0.25081506  0.16623549  0.95934257     1.09580
C104        C  0.03701664  0.25646593  0.12443726     0.03230
C105        C  0.50355679  0.25914401  0.10641912    -0.12920
C106        C  0.46984809  0.25955955  0.12334013     0.00730
C107        C  0.46954167  0.25765130  0.15866119    -0.11450
C108        C  0.50244994  0.25451905  0.17721214     0.03220
C109        C  0.03604107  0.25358348  0.15987570    -0.10870
H110        H  0.50362830  0.26143691  0.07915234     0.08820
H111        H  0.44353560  0.25839184  0.17172002     0.06340
H112        H  0.06136982  0.24961014  0.17396799     0.06190
C113        C  0.26449598  0.47061135  0.87567515     0.03230
C114        C  0.26324765  0.46911583  0.84030181    -0.12920
C115        C  0.26074757  0.50214494  0.82112363     0.00730
C116        C  0.25894498  0.03692243  0.83778023    -0.11450
C117        C  0.25927448  0.03839793  0.87305771     0.03220
C118        C  0.26210440  0.50538806  0.89188387    -0.10870
H119        H  0.26361842  0.44212601  0.82776142     0.08820
H120        H  0.25690882  0.06273233  0.82343449     0.06340
H121        H  0.26146277  0.50687895  0.91920679     0.06190
C122        C  0.02622837  0.23774643  0.87524970     0.03230
C123        C  0.02582932  0.24074138  0.83987142    -0.12920
C124        C  0.49258294  0.24336546  0.82170783     0.00730
C125        C  0.45932776  0.24350774  0.83957669    -0.11450
C126        C  0.45929771  0.24046625  0.87498664     0.03220
C127        C  0.49284588  0.23832302  0.89250896    -0.10870
H128        H  0.05153444  0.24118369  0.82645010     0.08820
H129        H  0.43351844  0.24497790  0.82591183     0.06340
H130        H  0.49293003  0.23785490  0.91984642     0.06190
C131        C  0.25222918  0.13687638  0.93351678    -0.05370
C132        C  0.22092491  0.11617604  0.92783063    -0.32800
C133        C  0.22268543  0.08453494  0.90713768     0.36450
C134        C  0.25564923  0.07422906  0.89092081    -0.05720
C135        C  0.28640217  0.09605418  0.89501878    -0.32690
C136        C  0.28499012  0.12709729  0.91660252     0.36360
H137        H  0.19561921  0.12334171  0.94090488     0.16730
O138        O  0.19239495  0.06330092  0.90346628    -0.60190
H139        H  0.31189543  0.08804389  0.88262840     0.16740
O140        O  0.31552906  0.14783559  0.92085918    -0.60290
H141        H  0.33069338  0.13417946  0.93804156     0.43740
H142        H  0.19310938  0.04604316  0.92306380     0.43700
C143        C  0.26210739  0.37017403  0.93478416    -0.05370
C144        C  0.28798689  0.39706475  0.94231079    -0.32800
C145        C  0.28954733  0.42980815  0.92302247     0.36450
C146        C  0.26513999  0.43579167  0.89567191    -0.05720
C147        C  0.23986842  0.40865695  0.88778641    -0.32690
C148        C  0.23824550  0.37610089  0.90680266     0.36360
H149        H  0.30674472  0.39299888  0.96339952     0.16730
O150        O  0.31560951  0.45528813  0.93043611    -0.60190
H151        H  0.22056164  0.41309895  0.86715154     0.16740
O152        O  0.21208100  0.35107017  0.89842813    -0.60290
H153        H  0.22364943  0.33440882  0.88114195     0.43740
H154        H  0.30747625  0.46757049  0.95173550     0.43700
C155        C  0.36752855  0.26636509  0.06824751    -0.05370
C156        C  0.39145223  0.23486821  0.06486471    -0.32800
C157        C  0.42509036  0.23271389  0.08216333     0.36450
C158        C  0.43475163  0.26176009  0.10418428    -0.05720
C159        C  0.41035926  0.29280603  0.10833533    -0.32690
C160        C  0.37725494  0.29560792  0.09000366     0.36360
H161        H  0.38448447  0.21229936  0.04793884     0.16730
O162        O  0.44794803  0.20166492  0.07808431    -0.60190
H163        H  0.41732145  0.31524028  0.12539101     0.16740
O164        O  0.35407223  0.32635742  0.09428340    -0.60290
H165        H  0.36726562  0.34772650  0.08494788     0.43740
H166        H  0.46179770  0.20635448  0.05716232     0.43700
C167        C  0.07264102  0.25563734  0.10587626    -0.05370
C168        C  0.07626790  0.23401927  0.07634481    -0.32800
C169        C  0.10818233  0.23423578  0.05702693     0.36450
C170        C  0.13761784  0.25627063  0.06683153    -0.05720
C171        C  0.13482919  0.27693724  0.09689151    -0.32690
C172        C  0.10267023  0.27682118  0.11639518     0.36360
H173        H  0.05406406  0.21693764  0.06796563     0.16730
O174        O  0.10989417  0.21333293  0.02801222    -0.60190
H175        H  0.15717093  0.29391752  0.10485652     0.16740
O176        O  0.09999070  0.29943484  0.14437717    -0.60290
H177        H  0.11605023  0.28706787  0.16165981     0.43740
H178        H  0.12044791  0.18851398  0.03498348     0.43700
C179        C  0.42450295  0.23940887  0.89418801    -0.05370
C180        C  0.39678624  0.26732208  0.88939902    -0.32800
C181        C  0.36539232  0.26867958  0.90973679     0.36450
C182        C  0.36124238  0.24168945  0.93533242    -0.05720
C183        C  0.38816953  0.21272161  0.93876989    -0.32690
C184        C  0.41959224  0.21159097  0.91874254     0.36360
H185        H  0.40006759  0.28890528  0.87060475     0.16730
O186        O  0.33961830  0.29717262  0.90499175    -0.60190
H187        H  0.38555243  0.19131090  0.95784019     0.16740
O188        O  0.44519068  0.18277225  0.92297183    -0.60290
H189        H  0.45715354  0.18751175  0.94504736     0.43740
H190        H  0.32135277  0.28689959  0.88919956     0.43700
C191        C  0.06149091  0.23559807  0.89433836    -0.05370
C192        C  0.08901730  0.26018915  0.88616478    -0.32800
C193        C  0.12168834  0.26047501  0.90466648     0.36450
C194        C  0.12742913  0.23608668  0.93255377    -0.05720
C195        C  0.10034607  0.21056160  0.94005967    -0.32690
C196        C  0.06774651  0.21003824  0.92113898     0.36360
H197        H  0.08482553  0.28015872  0.86582123     0.16730
O198        O  0.14709417  0.28598455  0.89593030    -0.60190
H199        H  0.10417611  0.19121823  0.96090970     0.16740
O200        O  0.04213719  0.18449890  0.92920536    -0.60290
H201        H  0.04653277  0.16329625  0.91334829     0.43740
H202        H  0.16270816  0.27311811  0.87873338     0.43700
C203        C  0.23524032  0.06198352  0.10564782    -0.05370
C204        C  0.25935879  0.09093274  0.11165371    -0.32800
C205        C  0.25656292  0.12424308  0.09310983     0.36450
C206        C  0.22879083  0.12935139  0.06835162    -0.05720
C207        C  0.20406338  0.10066068  0.06311538    -0.32690
C208        C  0.20726932  0.06716094  0.08129750     0.36360
H209        H  0.28102713  0.08737181  0.13032464     0.16730
O210        O  0.28120540  0.15145452  0.09946141    -0.60190
H211        H  0.18248220  0.10374371  0.04432079     0.16740
O212        O  0.18218015  0.04011525  0.07589655    -0.60290
H213        H  0.18835092  0.02904423  0.05355947     0.43740
H214        H  0.30303730  0.14431376  0.08577516     0.43700
C215        C  0.24341255  0.42225649  0.10866241    -0.05370
C216        C  0.27005054  0.41498523  0.08400122    -0.32800
C217        C  0.26937065  0.38249303  0.06438997     0.36450
C218        C  0.24159169  0.35684237  0.06913335    -0.05720
C219        C  0.21510724  0.36378660  0.09399033    -0.32690
C220        C  0.21612273  0.39613542  0.11406306     0.36360
H221        H  0.29096628  0.43504122  0.07940315     0.16730
O222        O  0.29425144  0.37743593  0.03884806    -0.60190
H223        H  0.19310340  0.34477283  0.09715488     0.16740
O224        O  0.18894110  0.40331453  0.13717458    -0.60290
H225        H  0.19648438  0.38870059  0.15748109     0.43740
H226        H  0.31807809  0.37169655  0.05011384     0.43700
C227        C  0.49231972  0.25086206  0.71260529    -0.05370
C228        C  0.01456827  0.22364377  0.72921048    -0.32800
C229        C  0.01501368  0.22100917  0.76452325     0.36450
C230        C  0.49271877  0.24573015  0.78410461    -0.05720
C231        C  0.47030341  0.27287424  0.76747832    -0.32690
C232        C  0.46994600  0.27552584  0.73212543     0.36360
H233        H  0.03174853  0.20421217  0.71470963     0.16730
O234        O  0.03591876  0.19289899  0.77957677    -0.60190
H235        H  0.45300403  0.29218658  0.78197907     0.16740
O236        O  0.44700441  0.30180943  0.71691628    -0.60290
H237        H  0.42431075  0.28853706  0.71161899     0.43740
H238        H  0.06170016  0.20001023  0.77672742     0.43700
C239        C  0.25453571  0.49691014  0.71278452    -0.05370
C240        C  0.28116936  0.47515524  0.73033037    -0.32800
C241        C  0.28353877  0.47663215  0.76551565     0.36450
C242        C  0.25897726  0.50021400  0.78381387    -0.05720
C243        C  0.23240702  0.02208745  0.76624221    -0.32690
C244        C  0.23018691  0.02072066  0.73101257     0.36360
H245        H  0.30028386  0.45685346  0.71668732     0.16730
O246        O  0.31107976  0.45634043  0.78167984    -0.60190
H247        H  0.21317849  0.04025050  0.77988760     0.16740
O248        O  0.20450769  0.04323613  0.71465369    -0.60290
H249        H  0.21743709  0.06618559  0.70866246     0.43740
H250        H  0.30455304  0.42973544  0.77945470     0.43700
C251        C  0.24981184  0.50023794  0.28729349    -0.05370
C252        C  0.27336696  0.02160188  0.26793673    -0.32800
C253        C  0.27298221  0.01930682  0.23271244     0.36450
C254        C  0.24851618  0.49562382  0.21621745    -0.05720
C255        C  0.22573935  0.47348261  0.23558722    -0.32690
C256        C  0.22619111  0.47567679  0.27084102     0.36360
H257        H  0.29178840  0.04053981  0.28015486     0.16730
O258        O  0.29668457  0.04026743  0.21467122    -0.60190
H259        H  0.20702371  0.45486367  0.22334099     0.16740
O260        O  0.20441275  0.45277500  0.28906807    -0.60290
H261        H  0.17902795  0.46308417  0.28580246     0.43740
H262        H  0.31827508  0.02326650  0.21037042     0.43700
C263        C  0.49629426  0.24812272  0.28598074    -0.05370
C264        C  0.01962119  0.27328767  0.27056532    -0.32800
C265        C  0.02242435  0.27514893  0.23532758     0.36450
C266        C  0.50138198  0.25187224  0.21470601    -0.05720
C267        C  0.47804161  0.22667862  0.23013917    -0.32690
C268        C  0.47538875  0.22469918  0.26538006     0.36360
H269        H  0.03584479  0.29161371  0.28594717     0.16730
O270        O  0.04433881  0.30119406  0.22126406    -0.60190
H271        H  0.46165455  0.20850709  0.21476364     0.16740
O272        O  0.45170022  0.20031571  0.27937343    -0.60290
H273        H  0.42864389  0.21531737  0.28305312     0.43740
H274        H  0.06979598  0.29111197  0.22456303     0.43700
C275        C  0.50640834  0.38884352  0.56648583    -0.05370
C276        C  0.47178487  0.37378380  0.57069267    -0.32800
C277        C  0.46787787  0.34051043  0.58865647     0.36450
C278        C  0.49862317  0.32244991  0.60382173    -0.05720
C279        C  0.03318973  0.33799756  0.60049589    -0.32690
C280        C  0.03730198  0.37070156  0.58141490     0.36360
H281        H  0.44783319  0.38711172  0.55885207     0.16730
O282        O  0.43387236  0.32583255  0.59135637    -0.60190
H283        H  0.05707467  0.32425309  0.61204561     0.16740
O284        O  0.07133857  0.38513565  0.57809885    -0.60290
H285        H  0.08202273  0.37277219  0.55779431     0.43740
H286        H  0.43124297  0.30976696  0.57109186     0.43700
C287        C  0.48443404  0.18365557  0.60192521    -0.05370
C288        C  0.01151712  0.15548635  0.60753757    -0.32800
C289        C  0.01153890  0.12182307  0.58946034     0.36450
C290        C  0.48352407  0.11523166  0.56554452    -0.05720
C291        C  0.45608383  0.14337288  0.56020721    -0.32690
C292        C  0.45650442  0.17743959  0.57808145     0.36360
H293        H  0.03341183  0.16001713  0.62551609     0.16730
O294        O  0.03979628  0.09603465  0.59484530    -0.60190
H295        H  0.43440206  0.13909924  0.54197073     0.16740
O296        O  0.42892984  0.20400612  0.57287229    -0.60290
H297        H  0.43552566  0.21703063  0.55181672     0.43740
H298        H  0.05903334  0.10259779  0.57856023     0.43700
C299        C  0.48277632  0.38416231  0.43469198    -0.05370
C300        C  0.00593292  0.38015473  0.40656715    -0.32800
C301        C  0.00779527  0.34702065  0.38762114     0.36450
C302        C  0.48602444  0.31681080  0.39631439    -0.05720
C303        C  0.46229676  0.32090217  0.42404030    -0.32690
C304        C  0.46047226  0.35417164  0.44309093     0.36360
H305        H  0.02383206  0.40237216  0.39973594     0.16730
O306        O  0.03301208  0.34347131  0.36216007    -0.60190
H307        H  0.44521572  0.29809504  0.43109526     0.16740
O308        O  0.43770086  0.35644114  0.47046318    -0.60290
H309        H  0.41433664  0.36785199  0.46173891     0.43740
H310        H  0.02339361  0.35994415  0.34374941     0.43700
C311        C  0.50257967  0.17646533  0.39507629    -0.05370
C312        C  0.02945669  0.17311713  0.42047426    -0.32800
C313        C  0.03387529  0.14031932  0.43963309     0.36450
C314        C  0.51068629  0.11006037  0.43406186    -0.05720
C315        C  0.48462903  0.11302488  0.40775389    -0.32690
C316        C  0.48058935  0.14574532  0.38830517     0.36360
H317        H  0.04699918  0.19625342  0.42567672     0.16730
O318        O  0.06020293  0.13883363  0.46449142    -0.60190
H319        H  0.46622335  0.09050662  0.40300642     0.16740
O320        O  0.45332561  0.14841287  0.36434628    -0.60290
H321        H  0.46275117  0.13362689  0.34481277     0.43740
H322        H  0.08194114  0.12622006  0.45393673     0.43700
C323        C  0.11928136  0.47733075  0.56594792    -0.05370
C324        C  0.12072391  0.00184213  0.59379928    -0.32800
C325        C  0.15276770  0.00513339  0.61274781     0.36450
C326        C  0.18423038  0.48320020  0.60450863    -0.05720
C327        C  0.18259475  0.45757156  0.57756177    -0.32690
C328        C  0.15059891  0.45475178  0.55814899     0.36360
H329        H  0.09737591  0.02009696  0.60014063     0.16730
O330        O  0.15384782  0.03208085  0.63747139    -0.60190
H331        H  0.20646703  0.44011281  0.57112344     0.16740
O332        O  0.15049902  0.43023937  0.53144821    -0.60290
H333        H  0.16146559  0.44385922  0.51245220     0.43740
H334        H  0.13886309  0.02267677  0.65620455     0.43700
C335        C  0.38257530  0.49083573  0.56300948    -0.05370
C336        C  0.37177452  0.45906280  0.58058164    -0.32800
C337        C  0.34067799  0.46082783  0.60084225     0.36450
C338        C  0.31952625  0.49439204  0.60309177    -0.05720
C339        C  0.33059821  0.02643494  0.58624009    -0.32690
C340        C  0.36227233  0.02496718  0.56652858     0.36360
H341        H  0.38718086  0.43264059  0.57819094     0.16730
O342        O  0.33011896  0.42917821  0.61710106    -0.60190
H343        H  0.31426248  0.05235323  0.58791563     0.16740
O344        O  0.37157915  0.05622861  0.54897489    -0.60290
H345        H  0.38737122  0.07025062  0.56461501     0.43740
H346        H  0.34180093  0.43019353  0.63973768     0.43700
C347        C  0.11626194  0.01857034  0.43418331    -0.05370
C348        C  0.14542743  0.04083010  0.44366060    -0.32800
C349        C  0.17769892  0.04052481  0.42470645     0.36450
C350        C  0.18124758  0.51736676  0.39582798    -0.05720
C351        C  0.15120476  0.49698595  0.38526703    -0.32690
C352        C  0.11882107  0.49786058  0.40370897     0.36360
H353        H  0.14374566  0.05774301  0.46637958     0.16730
O354        O  0.20522487  0.06353070  0.43418194    -0.60190
H355        H  0.15315525  0.47905953  0.36320064     0.16740
O356        O  0.09068109  0.47665840  0.39243212    -0.60290
H357        H  0.07538838  0.49372573  0.37794626     0.43740
H358        H  0.21411157  0.05408506  0.45642521     0.43700
C359        C  0.31753306  0.51008882  0.39696581    -0.05370
C360        C  0.34645283  0.48339149  0.39312717    -0.32800
C361        C  0.37859798  0.48586071  0.41238446     0.36450
C362        C  0.38206252  0.51555349  0.43563137    -0.05720
C363        C  0.35364888  0.04286676  0.43833097    -0.32690
C364        C  0.32157407  0.04020668  0.41948786     0.36360
H365        H  0.34376388  0.46017922  0.37574040     0.16730
O366        O  0.40603215  0.45887139  0.40861651    -0.60190
H367        H  0.35567357  0.06602811  0.45588197     0.16740
O368        O  0.29452664  0.06776645  0.42261201    -0.60290
H369        H  0.28407436  0.06438496  0.44540455     0.43740
H370        H  0.42287350  0.46916847  0.39176265     0.43700
O371        O  0.43527446  0.98888901  0.46453617    -0.80040
O372        O  0.08522233  0.52858669  0.48696661    -0.80060
O373        O  0.48929290  0.55088657  0.45189183    -0.80070
O374        O  0.00708459  0.94309779  0.44844185    -0.80010
O375        O  0.02805560  0.57894657  0.48553139    -0.80130
O376        O  0.46885162  0.92179836  0.48399824    -0.80050
O377        O  0.06100903  0.99155295  0.44941804    -0.80040
O378        O  0.41891338  0.54826890  0.47426664    -0.80080
C379        C  0.41353055  0.01777480  0.45897769     1.09650
C380        C  0.08529976  0.51380837  0.45762078     1.09540
C381        C  0.51034633  0.57763439  0.45767354     1.09670
C382        C  0.98534201  0.91822567  0.45622977     1.09550
O383        O  0.48814781  0.94964896  0.54832009    -0.80040
O384        O  0.00559087  0.55334008  0.55267796    -0.80120
O385        O  0.43414587  0.51451796  0.53351302    -0.80050
O386        O  0.08643037  0.96439154  0.51459927    -0.80030
O387        O  0.06035579  0.50141695  0.55209537    -0.80080
O388        O  0.41857328  0.95619401  0.52364834    -0.80050
O389        O  0.02883212  0.91793525  0.51713450    -0.80010
O390        O  0.46810550  0.57881001  0.51653263    -0.80080
Co391      Co  0.46416174  0.97154088  0.50805805     1.51530
Co392      Co  0.04274593  0.53828761  0.51906090     1.51690
Co393      Co  0.46424026  0.52992828  0.49115425     1.51570
Co394      Co  0.04362672  0.95663085  0.48276264     1.51470
O395        O  0.51015416  0.99886046  0.50018827    -1.41970
C396        C  0.00941534  0.92124688  0.54379850     1.09580
C397        C  0.48465914  0.58056870  0.54458377     1.09670
C398        C  0.41294009  0.98699241  0.53891073     1.09610
C399        C  0.08657027  0.47972677  0.54361030     1.09580
C400        C  0.49726245  0.71243732  0.37650802     0.03230
C401        C  0.49787156  0.71309195  0.34104165    -0.12920
C402        C  0.49377798  0.74713474  0.32343555     0.00730
C403        C  0.48878225  0.78067797  0.34172730    -0.11450
C404        C  0.48883700  0.78076379  0.37722125     0.03220
C405        C  0.49286613  0.74640983  0.39439193    -0.10870
H406        H  0.50275631  0.68721391  0.32717935     0.08820
H407        H  0.48479943  0.80683957  0.32817412     0.06340
H408        H  0.49311157  0.74610656  0.42174609     0.06190
C409        C  0.28305636  0.00669322  0.37785563     0.03230
C410        C  0.24961132  0.50953858  0.39499426    -0.12920
C411        C  0.21641331  0.01274642  0.37727800     0.00730
C412        C  0.21683887  0.01008710  0.34189815    -0.11450
C413        C  0.24995179  0.00404531  0.32451143     0.03220
C414        C  0.28312655  0.00301428  0.34265313    -0.10870
H415        H  0.24976822  0.50957933  0.42231509     0.08820
H416        H  0.19142277  0.01320394  0.32777449     0.06340
H417        H  0.30893571  0.99997065  0.32939942     0.06190
C418        C  0.28515908  0.99532227  0.62190702     0.03230
C419        C  0.25198897  0.99094487  0.60480317    -0.12840
C420        C  0.21929425  0.98804298  0.62284136     0.00730
C421        C  0.22030562  0.98977543  0.65829058    -0.11450
C422        C  0.25340329  0.99518550  0.67550584     0.03220
C423        C  0.28582819  0.99770140  0.65707487    -0.10870
H424        H  0.25175655  0.48941163  0.57746945     0.08820
H425        H  0.19553416  0.98604000  0.67256226     0.06340
H426        H  0.31169974  0.00123123  0.67004439     0.06190
C427        C  0.48638247  0.71936972  0.62097684     0.03230
C428        C  0.48972165  0.75350243  0.60397003    -0.12920
C429        C  0.49479480  0.78676279  0.62211550     0.00730
C430        C  0.49574314  0.78595485  0.65756337    -0.11450
C431        C  0.49169659  0.75208746  0.67501170     0.03220
C432        C  0.48750886  0.71890441  0.65642019    -0.10870
H433        H  0.48946416  0.75406547  0.57661648     0.08820
H434        H  0.49976268  0.81164538  0.67147773     0.06340
H435        H  0.48474176  0.69258397  0.66955642     0.06190
C436        C  0.24305557  0.95842545  0.12673413     0.03230
C437        C  0.24581111  0.95966834  0.16199198    -0.12920
C438        C  0.24600649  0.99424331  0.17894133     0.00730
C439        C  0.24250548  0.52759230  0.16028805    -0.11450
C440        C  0.23946808  0.52665148  0.12501075     0.03220
C441        C  0.24041353  0.99193850  0.10836287    -0.10870
H442        H  0.24853078  0.93375812  0.17613525     0.08820
H443        H  0.24119121  0.55433760  0.17329569     0.06340
H444        H  0.23889320  0.99091056  0.08105202     0.06190
O445        O  0.25942036  0.79722112  0.04771870    -0.80040
O446        O  0.20083211  0.66658023  0.02457970    -0.80060
O447        O  0.16565122  0.77897352  0.01743778    -0.80070
O448        O  0.30998287  0.74330898  0.04891311    -0.80010
O449        O  0.19752750  0.73833354  0.04747212    -0.80130
O450        O  0.32973323  0.79568312  0.02589856    -0.80050
O451        O  0.25144871  0.68785922  0.04815852    -0.80040
O452        O  0.21888545  0.83078061  0.01890171    -0.80080
C453        C  0.23827083  0.82573902  0.04522974     1.09650
C454        C  0.22701182  0.66248458  0.04581314     1.09540
C455        C  0.16934847  0.75946545  0.04398748     1.09670
C456        C  0.33427179  0.76884689  0.04676329     1.09550
O457        O  0.31010717  0.77270905  0.96237768    -0.80040
O458        O  0.16434319  0.72022781  0.98185008    -0.80120
O459        O  0.23543951  0.81347693  0.94906395    -0.80050
O460        O  0.27628002  0.66890562  0.98038673    -0.80030
O461        O  0.22303486  0.68713469  0.96223335    -0.80080
O462        O  0.27678411  0.83291436  0.98400810    -0.80050
O463        O  0.32698873  0.71864576  0.98126365    -0.80010
O464        O  0.18360775  0.76270814  0.94772206    -0.80080
Co465      Co  0.28478355  0.78212968  0.00559510     1.51530
Co466      Co  0.21363846  0.71249783  0.00515105     1.51690
Co467      Co  0.20383454  0.79365705  0.98372301     1.51570
Co468      Co  0.28550738  0.71032990  0.01257575     1.51470
O469        O  0.24439732  0.75240486  0.99120093    -1.41970
C470        C  0.33090044  0.74431436  0.96019061     1.09580
C471        C  0.16018380  0.73913039  0.95481135     1.09670
C472        C  0.25853785  0.83719090  0.95680755     1.09610
C473        C  0.25080892  0.66623679  0.95933545     1.09580
C474        C  0.03701627  0.75646275  0.12443114     0.03230
C475        C  0.50355674  0.75914004  0.10641240    -0.12920
C476        C  0.46984784  0.75955679  0.12333315     0.00730
C477        C  0.46954099  0.75765005  0.15865428    -0.11450
C478        C  0.50244900  0.75451771  0.17720564     0.03220
C479        C  0.03604039  0.75358104  0.15986949    -0.10870
H480        H  0.50362883  0.76143178  0.07914554     0.08820
H481        H  0.44353472  0.75839178  0.17171282     0.06340
H482        H  0.06136912  0.74960768  0.17396180     0.06190
C483        C  0.26452875  0.97061218  0.87567397     0.03230
C484        C  0.26329377  0.96912070  0.84030013    -0.12920
C485        C  0.26079973  0.00215211  0.82112463     0.00730
C486        C  0.25889881  0.53691717  0.83777610    -0.11450
C487        C  0.25924287  0.53839660  0.87305343     0.03220
C488        C  0.26212930  0.00538716  0.89188545    -0.10870
H489        H  0.26366912  0.94213227  0.82775719     0.08820
H490        H  0.25685803  0.56272543  0.82342823     0.06340
H491        H  0.26147693  0.00687496  0.91920823     0.06190
C492        C  0.02622682  0.73774772  0.87524603     0.03230
C493        C  0.02582824  0.74074207  0.83986778    -0.12920
C494        C  0.49258231  0.74336671  0.82170404     0.00730
C495        C  0.45932688  0.74350959  0.83957240    -0.11450
C496        C  0.45929637  0.74046817  0.87498230     0.03220
C497        C  0.49284427  0.73832483  0.89250506    -0.10870
H498        H  0.05153348  0.74118379  0.82644658     0.08820
H499        H  0.43351778  0.74498001  0.82590718     0.06340
H500        H  0.49292800  0.73785677  0.91984252     0.06190
C501        C  0.25221828  0.63687697  0.93351012    -0.05370
C502        C  0.22090869  0.61618524  0.92782178    -0.32800
C503        C  0.22266252  0.58454407  0.90712887     0.36450
C504        C  0.25562518  0.57422938  0.89091425    -0.05720
C505        C  0.28638404  0.59604552  0.89501461    -0.32690
C506        C  0.28497837  0.62708899  0.91659807     0.36360
H507        H  0.19560352  0.62335750  0.94089442     0.16730
O508        O  0.19236688  0.56331774  0.90345642    -0.60190
H509        H  0.31187655  0.58802795  0.88262622     0.16740
O510        O  0.31552267  0.64781885  0.92085658    -0.60290
H511        H  0.33068235  0.63415891  0.93803994     0.43740
H512        H  0.19307918  0.54605657  0.92305150     0.43700
C513        C  0.26212030  0.87017252  0.93477842    -0.05370
C514        C  0.28799576  0.89706432  0.94231436    -0.32800
C515        C  0.28956330  0.92980767  0.92302710     0.36450
C516        C  0.26516745  0.93579030  0.89566783    -0.05720
C517        C  0.23990173  0.90865323  0.88777156    -0.32690
C518        C  0.23827197  0.87609689  0.90678695     0.36360
H519        H  0.30674410  0.89300012  0.96341040     0.16730
O520        O  0.31562098  0.95528902  0.93045108    -0.60190
H521        H  0.22060424  0.91309385  0.86712921     0.16740
O522        O  0.21211423  0.85106323  0.89840111    -0.60290
H523        H  0.22369494  0.83439948  0.88112342     0.43740
H524        H  0.30747918  0.96756896  0.95174891     0.43700
C525        C  0.36752810  0.76636216  0.06824127    -0.05370
C526        C  0.39145149  0.73486505  0.06485865    -0.32800
C527        C  0.42508985  0.73271087  0.08215684     0.36450
C528        C  0.43475156  0.76175744  0.10417718    -0.05720
C529        C  0.41035951  0.79280366  0.10832800    -0.32690
C530        C  0.37725501  0.79560542  0.08999671     0.36360
H531        H  0.38448336  0.71229596  0.04793318     0.16730
O532        O  0.44794728  0.70166168  0.07807805    -0.60190
H533        H  0.41732207  0.81523819  0.12538323     0.16740
O534        O  0.35407262  0.82635523  0.09427613    -0.60290
H535        H  0.36726602  0.84772392  0.08493988     0.43740
H536        H  0.46179663  0.70635069  0.05715577     0.43700
C537        C  0.07264090  0.75563478  0.10587107    -0.05370
C538        C  0.07627037  0.73401370  0.07634169    -0.32800
C539        C  0.10818552  0.73423055  0.05702484     0.36450
C540        C  0.13761855  0.75626955  0.06682808    -0.05720
C541        C  0.13482709  0.77693939  0.09688603    -0.32690
C542        C  0.10266784  0.77682228  0.11638903     0.36360
H543        H  0.05406803  0.71692954  0.06796345     0.16730
O544        O  0.10990029  0.71332421  0.02801226    -0.60190
H545        H  0.15716684  0.79392284  0.10484997     0.16740
O546        O  0.09998558  0.79943835  0.14436929    -0.60290
H547        H  0.11604480  0.78707376  0.16165349     0.43740
H548        H  0.12045589  0.68850700  0.03498629     0.43700
C549        C  0.42450142  0.73941046  0.89418306    -0.05370
C550        C  0.39678502  0.76732408  0.88939449    -0.32800
C551        C  0.36539071  0.76868091  0.90973170     0.36450
C552        C  0.36124005  0.74168956  0.93532612    -0.05720
C553        C  0.38816691  0.71272137  0.93876307    -0.32690
C554        C  0.41959010  0.71159155  0.91873646     0.36360
H555        H  0.40006695  0.78890805  0.87060105     0.16730
O556        O  0.33961705  0.79717445  0.90498738    -0.60190
H557        H  0.38554932  0.69130984  0.95783255     0.16740
O558        O  0.44518847  0.68277270  0.92296541    -0.60290
H559        H  0.45715121  0.68751176  0.94504109     0.43740
H560        H  0.32135146  0.78690227  0.88919476     0.43700
C561        C  0.06148911  0.73560006  0.89433485    -0.05370
C562        C  0.08901514  0.76019146  0.88616103    -0.32800
C563        C  0.12168607  0.76047800  0.90466274     0.36450
C564        C  0.12742699  0.73609014  0.93255028    -0.05720
C565        C  0.10034431  0.71056470  0.94005643    -0.32690
C566        C  0.06774487  0.71004062  0.92113571     0.36360
H567        H  0.08482317  0.78016071  0.86581726     0.16730
O568        O  0.14709168  0.78598766  0.89592625    -0.60190
H569        H  0.10417453  0.69122166  0.96090669     0.16740
O570        O  0.04213585  0.68450105  0.92920225    -0.60290
H571        H  0.04653181  0.66329821  0.91334547     0.43740
H572        H  0.16270599  0.77312099  0.87872971     0.43700
C573        C  0.23523542  0.56198529  0.10564460    -0.05370
C574        C  0.25935232  0.59093552  0.11165192    -0.32800
C575        C  0.25655751  0.62424511  0.09310679     0.36450
C576        C  0.22878783  0.62935177  0.06834601    -0.05720
C577        C  0.20406201  0.60065994  0.06310815    -0.32690
C578        C  0.20726708  0.56716087  0.08129141     0.36360
H579        H  0.28101856  0.58737599  0.13032508     0.16730
O580        O  0.28119835  0.65145768  0.09945999    -0.60190
H581        H  0.18248284  0.60374161  0.04431148     0.16740
O582        O  0.18217951  0.54011403  0.07588873    -0.60290
H583        H  0.18835364  0.52904201  0.05355280     0.43740
H584        H  0.30303217  0.64431694  0.08577629     0.43700
C585        C  0.24341697  0.92225453  0.10866085    -0.05370
C586        C  0.27005314  0.91498429  0.08399783    -0.32800
C587        C  0.26937229  0.88249250  0.06438616     0.36450
C588        C  0.24159423  0.85684117  0.06913098    -0.05720
C589        C  0.21511158  0.86378445  0.09398979    -0.32690
C590        C  0.21612799  0.89613296  0.11406286     0.36360
H591        H  0.29096823  0.93504071  0.07939878     0.16730
O592        O  0.29425129  0.87743635  0.03884268    -0.60190
H593        H  0.19310840  0.84477021  0.09715554     0.16740
O594        O  0.18894805  0.90331120  0.13717624    -0.60290
H595        H  0.19649385  0.88869817  0.15748254     0.43740
H596        H  0.31807864  0.87169617  0.05010693     0.43700
C597        C  0.49232156  0.75086285  0.71260209    -0.05370
C598        C  0.01456705  0.72364219  0.72920737    -0.32800
C599        C  0.01501172  0.72100779  0.76452010     0.36450
C600        C  0.49271879  0.74573112  0.78410104    -0.05720
C601        C  0.47030619  0.77287731  0.76747454    -0.32690
C602        C  0.46994987  0.77552896  0.73212173     0.36360
H603        H  0.03174554  0.70420883  0.71470663     0.16730
O604        O  0.03591434  0.69289608  0.77957411    -0.60190
H605        H  0.45300832  0.79219127  0.78197509     0.16740
O606        O  0.44701142  0.80181500  0.71691206    -0.60290
H607        H  0.42431628  0.78854531  0.71161447     0.43740
H608        H  0.06169640  0.70000557  0.77672578     0.43700
C609        C  0.25459599  0.99691961  0.71278498    -0.05370
C610        C  0.28122889  0.97516453  0.73033163    -0.32800
C611        C  0.28359746  0.97664227  0.76551710     0.36450
C612        C  0.25903612  0.00022545  0.78381432    -0.05720
C613        C  0.23234483  0.52207306  0.76624315    -0.32690
C614        C  0.23012372  0.52070707  0.73101340     0.36360
H615        H  0.30034198  0.95686057  0.71668922     0.16730
O616        O  0.31113617  0.95634856  0.78168262    -0.60190
H617        H  0.21311589  0.54023459  0.77988964     0.16740
O618        O  0.20444198  0.54322069  0.71465579    -0.60290
H619        H  0.21736843  0.56617253  0.70866635     0.43740
H620        H  0.30460890  0.92974393  0.77945539     0.43700
C621        C  0.24985133  0.00023258  0.28729250    -0.05370
C622        C  0.27333039  0.52160847  0.26794188    -0.32800
C623        C  0.27295287  0.51931356  0.23271755     0.36450
C624        C  0.24854116  0.99561811  0.21621676    -0.05720
C625        C  0.22576780  0.97347753  0.23559058    -0.32690
C626        C  0.22622672  0.97567190  0.27084429     0.36360
H627        H  0.29174891  0.54054685  0.28016333     0.16730
O628        O  0.29665836  0.54027495  0.21468069    -0.60190
H629        H  0.20704904  0.95485927  0.22334769     0.16740
O630        O  0.20445114  0.95277109  0.28907531    -0.60290
H631        H  0.17906593  0.96308053  0.28581311     0.43740
H632        H  0.31825062  0.52327494  0.21038427     0.43700
C633        C  0.49629443  0.74812288  0.28597446    -0.05370
C634        C  0.01962511  0.77328400  0.27055858    -0.32800
C635        C  0.02242730  0.77514529  0.23532082     0.36450
C636        C  0.50138082  0.75187185  0.21469956    -0.05720
C637        C  0.47803698  0.72668199  0.23013322    -0.32690
C638        C  0.47538441  0.72470313  0.26537411     0.36360
H639        H  0.03585227  0.79160719  0.28593997     0.16730
O640        O  0.04434474  0.80118759  0.22125698    -0.60190
H641        H  0.46164690  0.70851290  0.21475810     0.16740
O642        O  0.45169172  0.70032407  0.27936771    -0.60290
H643        H  0.42863800  0.71532988  0.28304807     0.43740
H644        H  0.06980103  0.79110358  0.22455743     0.43700
C645        C  0.50644159  0.88884185  0.56648646    -0.05370
C646        C  0.47181502  0.87378776  0.57068951    -0.32800
C647        C  0.46790063  0.84051472  0.58865185     0.36450
C648        C  0.49864153  0.82244866  0.60381942    -0.05720
C649        C  0.03321118  0.83799058  0.60049744    -0.32690
C650        C  0.03733088  0.87069432  0.58141785     0.36360
H651        H  0.44786657  0.88711991  0.55884711     0.16730
O652        O  0.43389210  0.82584290  0.59134851    -0.60190
H653        H  0.05709277  0.82424192  0.61204915     0.16740
O654        O  0.07137036  0.88512279  0.57810553    -0.60290
H655        H  0.08205515  0.87275784  0.55780197     0.43740
H656        H  0.43126141  0.80977948  0.57108277     0.43700
C657        C  0.48441870  0.68365871  0.60192281    -0.05370
C658        C  0.01149624  0.65548367  0.60753378    -0.32800
C659        C  0.01150871  0.62181995  0.58945782     0.36450
C660        C  0.48348971  0.61523403  0.56554469    -0.05720
C661        C  0.45605515  0.64338133  0.56020854    -0.32690
C662        C  0.45648518  0.67744843  0.57808156     0.36360
H663        H  0.03339377  0.66000997  0.62551046     0.16730
O664        O  0.03976112  0.59602545  0.59484150    -0.60190
H665        H  0.43437056  0.63911209  0.54197393     0.16740
O666        O  0.42891589  0.70402105  0.57287379    -0.60290
H667        H  0.43551395  0.71704461  0.55181840     0.43740
H668        H  0.05899844  0.60258351  0.57855483     0.43700
C669        C  0.48281984  0.88416109  0.43468996    -0.05370
C670        C  0.00597767  0.88014750  0.40656657    -0.32800
C671        C  0.00783046  0.84701418  0.38761892     0.36450
C672        C  0.48604905  0.81681154  0.39630960    -0.05720
C673        C  0.46232067  0.82090921  0.42403425    -0.32690
C674        C  0.46050539  0.85417772  0.44308615     0.36360
H675        H  0.02388440  0.90235927  0.39973761     0.16730
O676        O  0.03304745  0.84345784  0.36215856    -0.60190
H677        H  0.44523163  0.79810770  0.43108716     0.16740
O678        O  0.43773203  0.85645327  0.47045680    -0.60290
H679        H  0.41437189  0.86787222  0.46173135     0.43740
H680        H  0.02343396  0.85993339  0.34374780     0.43700
C681        C  0.50256017  0.67646364  0.39506988    -0.05370
C682        C  0.02943943  0.67310672  0.42046514    -0.32800
C683        C  0.03384780  0.64030932  0.43962557     0.36450
C684        C  0.51064576  0.61005996  0.43405917    -0.05720
C685        C  0.48458627  0.61303242  0.40775358    -0.32690
C686        C  0.48055707  0.64575237  0.38830281     0.36360
H687        H  0.04699166  0.69623605  0.42566424     0.16730
O688        O  0.06017908  0.63881470  0.46448051    -0.60190
H689        H  0.46617124  0.59052138  0.40300974     0.16740
O690        O  0.45329169  0.64842883  0.36434603    -0.60290
H691        H  0.46271133  0.63364054  0.34481160     0.43740
H692        H  0.08191034  0.62618956  0.45392433     0.43700
C693        C  0.11932506  0.97732330  0.56595883    -0.05370
C694        C  0.12068018  0.50185268  0.59378617    -0.32800
C695        C  0.15272365  0.50514569  0.61273446     0.36450
C696        C  0.18427480  0.98318916  0.60451980    -0.05720
C697        C  0.18263773  0.95756098  0.57757268    -0.32690
C698        C  0.15064176  0.95474299  0.55815985     0.36360
H699        H  0.09733199  0.52010768  0.60012661     0.16730
O700        O  0.15380366  0.53209492  0.63745652    -0.60190
H701        H  0.20650960  0.94010221  0.57113315     0.16740
O702        O  0.15054148  0.93023200  0.53145800    -0.60290
H703        H  0.16151012  0.94385189  0.51246309     0.43740
H704        H  0.13881794  0.52269278  0.65618983     0.43700
C705        C  0.38261812  0.99083030  0.56300052    -0.05370
C706        C  0.37180807  0.95905214  0.58055974    -0.32800
C707        C  0.34071175  0.96081609  0.60082045     0.36450
C708        C  0.31957001  0.99438523  0.60308420    -0.05720
C709        C  0.33054585  0.52643704  0.58623500    -0.32690
C710        C  0.36222075  0.52496897  0.56652470     0.36360
H711        H  0.38720733  0.93262693  0.57815940     0.16730
O712        O  0.33014431  0.92916206  0.61706706    -0.60190
H713        H  0.31420264  0.55235150  0.58789953     0.16740
O714        O  0.37151940  0.55622494  0.54895889    -0.60290
H715        H  0.38730842  0.57025813  0.56459315     0.43740
H716        H  0.34182426  0.93016519  0.63970519     0.43700
C717        C  0.11620778  0.51857511  0.43417613    -0.05370
C718        C  0.14537099  0.54083888  0.44365126    -0.32800
C719        C  0.17764287  0.54053337  0.42469788     0.36450
C720        C  0.18130109  0.01736201  0.39583376    -0.05720
C721        C  0.15125643  0.99698447  0.38527175    -0.32690
C722        C  0.11887311  0.99785956  0.40371403     0.36360
H723        H  0.14368738  0.55775481  0.46636835     0.16730
O724        O  0.20516719  0.56354210  0.43417166    -0.60190
H725        H  0.15320467  0.97906060  0.36320358     0.16740
O726        O  0.09073077  0.97666211  0.39243467    -0.60290
H727        H  0.07543905  0.99373345  0.37795168     0.43740
H728        H  0.21405327  0.55410018  0.45641637     0.43700
C729        C  0.31758709  0.01008717  0.39695728    -0.05370
C730        C  0.34650601  0.98338871  0.39311944    -0.32800
C731        C  0.37865170  0.98585822  0.41237610     0.36450
C732        C  0.38211746  0.01555243  0.43562139    -0.05720
C733        C  0.35359250  0.54286590  0.43834318    -0.32690
C734        C  0.32151812  0.54020617  0.41949924     0.36360
H735        H  0.34381561  0.96017497  0.37573453     0.16730
O736        O  0.40608464  0.95886727  0.40860991    -0.60190
H737        H  0.35561625  0.56602580  0.45589588     0.16740
O738        O  0.29446985  0.56776487  0.42262462    -0.60290
H739        H  0.28401753  0.56438152  0.44541689     0.43740
H740        H  0.42292658  0.96916215  0.39175541     0.43700
O741        O  0.93522067  0.48889063  0.46454395    -0.80040
O742        O  0.58527310  0.02858412  0.48697199    -0.80060
O743        O  0.98934560  0.05088151  0.45189144    -0.80070
O744        O  0.50702958  0.44310436  0.44844097    -0.80010
O745        O  0.52810475  0.07894496  0.48553173    -0.80130
O746        O  0.96880264  0.42179961  0.48400002    -0.80050
O747        O  0.56095460  0.49155882  0.44941217    -0.80040
O748        O  0.91896471  0.04826568  0.47426118    -0.80080
C749        C  0.91347712  0.51777683  0.45898564     1.09650
C750        C  0.58535298  0.01380372  0.45762703     1.09540
C751        C  0.01039503  0.07763224  0.45767407     1.09670
C752        C  0.48529157  0.41822875  0.45623050     1.09550
O753        O  0.98810646  0.44964924  0.54832106    -0.80040
O754        O  0.50563758  0.05334151  0.55267844    -0.80120
O755        O  0.93419173  0.01451495  0.53350903    -0.80050
O756        O  0.58638369  0.46439507  0.51459068    -0.80030
O757        O  0.56040368  0.00141885  0.55210081    -0.80080
O758        O  0.91852839  0.45619488  0.52365861    -0.80050
O759        O  0.52878714  0.41793789  0.51712978    -0.80010
O760        O  0.96815213  0.07880667  0.51653010    -0.80080
Co761      Co  0.96411433  0.47154184  0.50806216     1.51530
Co762      Co  0.54279433  0.03828697  0.51906319     1.51690
Co763      Co  0.96428994  0.02992465  0.49115239     1.51570
Co764      Co  0.54357656  0.45663505  0.48275743     1.51470
O765        O  0.01010462  0.49886299  0.50018657    -1.41970
C766        C  0.50937483  0.42124840  0.54379657     1.09580
C767        C  0.98470282  0.08056726  0.54458251     1.09670
C768        C  0.91289582  0.48699502  0.53891860     1.09610
C769        C  0.58661612  0.97972447  0.54361837     1.09580
C770        C  0.99727131  0.21243810  0.37651448     0.03230
C771        C  0.99788117  0.21309275  0.34104806    -0.12920
C772        C  0.99377667  0.24713426  0.32344161     0.00730
C773        C  0.98876900  0.28067629  0.34173279    -0.11450
C774        C  0.98882305  0.28076274  0.37722684     0.03220
C775        C  0.99286323  0.24640983  0.39439804    -0.10870
H776        H  0.00277477  0.18721611  0.32718582     0.08820
H777        H  0.98477787  0.30683648  0.32817893     0.06340
H778        H  0.99310818  0.24610696  0.42175219     0.06190
C779        C  0.78300436  0.50669649  0.37786052     0.03230
C780        C  0.74966545  0.00953504  0.39499310    -0.12920
C781        C  0.71636145  0.51274972  0.37727550     0.00730
C782        C  0.71679114  0.51008946  0.34189576    -0.11450
C783        C  0.74990653  0.50404891  0.32451259     0.03220
C784        C  0.78307892  0.50301798  0.34265801    -0.10870
H785        H  0.74982612  0.00957539  0.42231390     0.08820
H786        H  0.69137654  0.51320529  0.32776965     0.06340
H787        H  0.80888981  0.49997471  0.32940705     0.06190
C788        C  0.78511235  0.49532730  0.62191019     0.03230
C789        C  0.75194448  0.49095470  0.60480128    -0.12840
C790        C  0.71924713  0.48805087  0.62283481     0.00730
C791        C  0.72025293  0.48977705  0.65828435    -0.11450
C792        C  0.75334814  0.49518257  0.67550489     0.03220
C793        C  0.78577605  0.49770034  0.65707847    -0.10870
H794        H  0.75179727  0.98939749  0.57747153     0.08820
H795        H  0.69547890  0.48604006  0.67255185     0.06340
H796        H  0.81164586  0.50122729  0.67005179     0.06190
C797        C  0.98638866  0.21936730  0.62097960     0.03230
C798        C  0.98971985  0.25350113  0.60397282    -0.12920
C799        C  0.99478462  0.28676305  0.62211821     0.00730
C800        C  0.99573298  0.28595543  0.65756612    -0.11450
C801        C  0.99169427  0.25208673  0.67501467     0.03220
C802        C  0.98751445  0.21890232  0.65642301    -0.10870
H803        H  0.98946278  0.25406411  0.57661927     0.08820
H804        H  0.99974676  0.31164723  0.67148026     0.06340
H805        H  0.98475323  0.19258092  0.66955911     0.06190
C806        C  0.74304957  0.45842806  0.12673469     0.03230
C807        C  0.74579855  0.45967231  0.16199290    -0.12920
C808        C  0.74598998  0.49424788  0.17894155     0.00730
C809        C  0.74251849  0.02758836  0.16028920    -0.11450
C810        C  0.73947448  0.02664892  0.12501236     0.03220
C811        C  0.74041066  0.49194045  0.10836226    -0.10870
H812        H  0.74851553  0.43376261  0.17613720     0.08820
H813        H  0.74120732  0.05433318  0.17329773     0.06340
H814        H  0.73889477  0.49091155  0.08105125     0.06190
O815        O  0.75942058  0.29722263  0.04772252    -0.80040
O816        O  0.70083423  0.16657933  0.02458565    -0.80060
O817        O  0.66565103  0.27897164  0.01744011    -0.80070
O818        O  0.80998280  0.24331223  0.04892003    -0.80010
O819        O  0.69752701  0.23833323  0.04747637    -0.80130
O820        O  0.82973392  0.29568499  0.02590349    -0.80050
O821        O  0.75145004  0.18786009  0.04816490    -0.80040
O822        O  0.71888442  0.33077918  0.01890433    -0.80080
C823        C  0.73826977  0.32573939  0.04523266     1.09650
C824        C  0.72701396  0.16248455  0.04581917     1.09540
C825        C  0.66934795  0.25946498  0.04399067     1.09670
C826        C  0.83427212  0.26884966  0.04676934     1.09550
O827        O  0.81010846  0.27270915  0.96238247    -0.80040
O828        O  0.66434509  0.22022440  0.98185397    -0.80120
O829        O  0.73544255  0.31347055  0.94906777    -0.80050
O830        O  0.77628508  0.16890621  0.98039446    -0.80030
O831        O  0.72303903  0.18713107  0.96223955    -0.80080
O832        O  0.77678332  0.33291544  0.98401152    -0.80050
O833        O  0.82699197  0.21864774  0.98127160    -0.80010
O834        O  0.68361054  0.26270343  0.94772534    -0.80080
Co835      Co  0.78478442  0.28213082  0.00559949     1.51530
Co836      Co  0.71364007  0.21249626  0.00515627     1.51690
Co837      Co  0.70383556  0.29365386  0.98372608     1.51570
Co838      Co  0.78550979  0.21033105  0.01258298     1.51470
O839        O  0.74439897  0.25240355  0.99120635    -1.41970
C840        C  0.83090280  0.24431507  0.96019700     1.09580
C841        C  0.66018610  0.23912633  0.95481481     1.09670
C842        C  0.75853526  0.33718979  0.95681172     1.09610
C843        C  0.75081499  0.16623549  0.95934249     1.09580
C844        C  0.53701671  0.25646601  0.12443730     0.03230
C845        C  0.00355675  0.25914389  0.10641905    -0.12920
C846        C  0.96984803  0.25955946  0.12334003     0.00730
C847        C  0.96954158  0.25765125  0.15866109    -0.11450
C848        C  0.00244984  0.25451903  0.17721208     0.03220
C849        C  0.53604117  0.25358350  0.15987574    -0.10870
H850        H  0.00362829  0.26143673  0.07915226     0.08820
H851        H  0.94353550  0.25839182  0.17171991     0.06340
H852        H  0.56136991  0.24961012  0.17396802     0.06190
C853        C  0.76449621  0.47061143  0.87567511     0.03230
C854        C  0.76324788  0.46911591  0.84030177    -0.12920
C855        C  0.76074782  0.50214503  0.82112360     0.00730
C856        C  0.75894483  0.03692233  0.83778025    -0.11450
C857        C  0.75927431  0.03839783  0.87305773     0.03220
C858        C  0.76210466  0.50538813  0.89188384    -0.10870
H859        H  0.76361863  0.44212610  0.82776138     0.08820
H860        H  0.75690867  0.06273224  0.82343452     0.06340
H861        H  0.76146302  0.50687901  0.91920676     0.06190
C862        C  0.52622830  0.23774624  0.87524965     0.03230
C863        C  0.52582924  0.24074119  0.83987138    -0.12920
C864        C  0.99258304  0.24336567  0.82170786     0.00730
C865        C  0.95932785  0.24350799  0.83957671    -0.11450
C866        C  0.95929777  0.24046650  0.87498666     0.03220
C867        C  0.99284594  0.23832325  0.89250899    -0.10870
H868        H  0.55153434  0.24118353  0.82645004     0.08820
H869        H  0.93351853  0.24497815  0.82591184     0.06340
H870        H  0.99293007  0.23785513  0.91984645     0.06190
C871        C  0.75222906  0.13687633  0.93351674    -0.05370
C872        C  0.72092483  0.11617589  0.92783076    -0.32800
C873        C  0.72268532  0.08453476  0.90713784     0.36450
C874        C  0.75564907  0.07422895  0.89092084    -0.05720
C875        C  0.78640197  0.09605416  0.89501865    -0.32690
C876        C  0.78498994  0.12709730  0.91660235     0.36360
H877        H  0.69561917  0.12334151  0.94090510     0.16730
O878        O  0.69239489  0.06330065  0.90346659    -0.60190
H879        H  0.81189518  0.08804393  0.88262816     0.16740
O880        O  0.81552885  0.14783568  0.92085886    -0.60290
H881        H  0.83069327  0.13417964  0.93804121     0.43740
H882        H  0.69310942  0.04604295  0.92306416     0.43700
C883        C  0.76210739  0.37017409  0.93478409    -0.05370
C884        C  0.78798695  0.39706475  0.94231072    -0.32800
C885        C  0.78954746  0.42980815  0.92302241     0.36450
C886        C  0.76514014  0.43579173  0.89567186    -0.05720
C887        C  0.73986850  0.40865708  0.88778636    -0.32690
C888        C  0.73824550  0.37610103  0.90680260     0.36360
H889        H  0.80674478  0.39299883  0.96339945     0.16730
O890        O  0.81560970  0.45528806  0.93043606    -0.60190
H891        H  0.72056172  0.41309914  0.86715149     0.16740
O892        O  0.71208093  0.35107038  0.89842808    -0.60290
H893        H  0.72364931  0.33440901  0.88114187     0.43740
H894        H  0.80747646  0.46757045  0.95173545     0.43700
C895        C  0.86752851  0.26636511  0.06824739    -0.05370
C896        C  0.89145211  0.23486816  0.06486466    -0.32800
C897        C  0.92509024  0.23271381  0.08216328     0.36450
C898        C  0.93475158  0.26176005  0.10418417    -0.05720
C899        C  0.91035929  0.29280606  0.10833514    -0.32690
C900        C  0.87725497  0.29560798  0.09000347     0.36360
H901        H  0.88448430  0.21229928  0.04793884     0.16730
O902        O  0.94794785  0.20166478  0.07808433    -0.60190
H903        H  0.91732153  0.31524034  0.12539076     0.16740
O904        O  0.85407234  0.32635755  0.09428314    -0.60290
H905        H  0.86726577  0.34772655  0.08494751     0.43740
H906        H  0.96179756  0.20635426  0.05716235     0.43700
C907        C  0.57264106  0.25563741  0.10587627    -0.05370
C908        C  0.57626782  0.23401952  0.07634469    -0.32800
C909        C  0.60818220  0.23423606  0.05702675     0.36450
C910        C  0.63761783  0.25627070  0.06683144    -0.05720
C911        C  0.63482933  0.27693708  0.09689154    -0.32690
C912        C  0.60267039  0.27682104  0.11639526     0.36360
H913        H  0.55406390  0.21693803  0.06796545     0.16730
O914        O  0.60989388  0.21333341  0.02801191    -0.60190
H915        H  0.65717117  0.29391720  0.10485663     0.16740
O916        O  0.59999101  0.29943454  0.14437736    -0.60290
H917        H  0.61605057  0.28706743  0.16165990     0.43740
H918        H  0.62044750  0.18851436  0.03498301     0.43700
C919        C  0.92450301  0.23940910  0.89418800    -0.05370
C920        C  0.89678630  0.26732231  0.88939902    -0.32800
C921        C  0.86539235  0.26867977  0.90973676     0.36450
C922        C  0.86124238  0.24168959  0.93533234    -0.05720
C923        C  0.88816953  0.21272176  0.93876980    -0.32690
C924        C  0.91959227  0.21159116  0.91874249     0.36360
H925        H  0.90006767  0.28890555  0.87060479     0.16730
O926        O  0.83961833  0.29717282  0.90499174    -0.60190
H927        H  0.88555242  0.19131101  0.95784007     0.16740
O928        O  0.94519071  0.18277244  0.92297178    -0.60290
H929        H  0.95715356  0.18751192  0.94504732     0.43740
H930        H  0.82135283  0.28689983  0.88919950     0.43700
C931        C  0.56149085  0.23559793  0.89433829    -0.05370
C932        C  0.58901720  0.26018907  0.88616471    -0.32800
C933        C  0.62168824  0.26047498  0.90466640     0.36450
C934        C  0.62742909  0.23608665  0.93255367    -0.05720
C935        C  0.60034608  0.21056150  0.94005957    -0.32690
C936        C  0.56774651  0.21003809  0.92113890     0.36360
H937        H  0.58482538  0.28015865  0.86582117     0.16730
O938        O  0.64709402  0.28598458  0.89593022    -0.60190
H939        H  0.60417617  0.19121812  0.96090959     0.16740
O940        O  0.54213725  0.18449871  0.92920528    -0.60290
H941        H  0.54653286  0.16329607  0.91334821     0.43740
H942        H  0.66270802  0.27311818  0.87873327     0.43700
C943        C  0.73524030  0.06198361  0.10564778    -0.05370
C944        C  0.75935879  0.09093283  0.11165363    -0.32800
C945        C  0.75656292  0.12424315  0.09310974     0.36450
C946        C  0.72879080  0.12935147  0.06835156    -0.05720
C947        C  0.70406332  0.10066076  0.06311536    -0.32690
C948        C  0.70726927  0.06716103  0.08129749     0.36360
H949        H  0.78102716  0.08737189  0.13032454     0.16730
O950        O  0.78120541  0.15145459  0.09946128    -0.60190
H951        H  0.68248212  0.10374380  0.04432079     0.16740
O952        O  0.68218008  0.04011535  0.07589659    -0.60290
H953        H  0.68835082  0.02904431  0.05355951     0.43740
H954        H  0.80303730  0.14431380  0.08577501     0.43700
C955        C  0.74341245  0.42225640  0.10866240    -0.05370
C956        C  0.77005044  0.41498518  0.08400120    -0.32800
C957        C  0.76937054  0.38249301  0.06438992     0.36450
C958        C  0.74159159  0.35684234  0.06913328    -0.05720
C959        C  0.71510714  0.36378653  0.09399027    -0.32690
C960        C  0.71612264  0.39613532  0.11406303     0.36360
H961        H  0.79096618  0.43504117  0.07940314     0.16730
O962        O  0.79425132  0.37743594  0.03884799    -0.60190
H963        H  0.69310330  0.34477276  0.09715480     0.16740
O964        O  0.68894101  0.40331440  0.13717456    -0.60290
H965        H  0.69648429  0.38870044  0.15748105     0.43740
H966        H  0.81807800  0.37169663  0.05011376     0.43700
C967        C  0.99231979  0.25086215  0.71260531    -0.05370
C968        C  0.51456820  0.22364366  0.72921044    -0.32800
C969        C  0.51501359  0.22100902  0.76452320     0.36450
C970        C  0.99271888  0.24573033  0.78410464    -0.05720
C971        C  0.97030353  0.27287442  0.76747833    -0.32690
C972        C  0.96994610  0.27552597  0.73212544     0.36360
H973        H  0.53174848  0.20421209  0.71470958     0.16730
O974        O  0.53591868  0.19289883  0.77957671    -0.60190
H975        H  0.95300416  0.29218678  0.78197907     0.16740
O976        O  0.94700450  0.30180955  0.71691628    -0.60290
H977        H  0.92431084  0.28853719  0.71161901     0.43740
H978        H  0.56170007  0.20001008  0.77672736     0.43700
C979        C  0.75453583  0.49691019  0.71278450    -0.05370
C980        C  0.78116950  0.47515529  0.73033033    -0.32800
C981        C  0.78353897  0.47663224  0.76551560     0.36450
C982        C  0.75897748  0.50021410  0.78381384    -0.05720
C983        C  0.73240693  0.02208736  0.76624222    -0.32690
C984        C  0.73018684  0.02072059  0.73101257     0.36360
H985        H  0.80028398  0.45685351  0.71668727     0.16730
O986        O  0.81107998  0.45634052  0.78167978    -0.60190
H987        H  0.71317837  0.04025038  0.77988760     0.16740
O988        O  0.70450762  0.04323605  0.71465369    -0.60290
H989        H  0.71743700  0.06618553  0.70866248     0.43740
H990        H  0.80455326  0.42973553  0.77945466     0.43700
C991        C  0.74981180  0.50023785  0.28729350    -0.05370
C992        C  0.77336697  0.02160198  0.26793670    -0.32800
C993        C  0.77298222  0.01930693  0.23271241     0.36450
C994        C  0.74851612  0.49562370  0.21621747    -0.05720
C995        C  0.72573928  0.47348252  0.23558725    -0.32690
C996        C  0.72619104  0.47567671  0.27084105     0.36360
H997        H  0.79178840  0.04053992  0.28015484     0.16730
O998        O  0.79668457  0.04026756  0.21467120    -0.60190
H999        H  0.70702362  0.45486359  0.22334102     0.16740
O1000       O  0.70441267  0.45277495  0.28906811    -0.60290
H1001       H  0.67902788  0.46308413  0.28580250     0.43740
H1002       H  0.81827509  0.02326664  0.21037041     0.43700
C1003       C  0.99629416  0.24812271  0.28598068    -0.05370
C1004       C  0.51962130  0.27328767  0.27056539    -0.32800
C1005       C  0.52242447  0.27514893  0.23532765     0.36450
C1006       C  0.00138185  0.25187224  0.21470594    -0.05720
C1007       C  0.97804148  0.22667863  0.23013911    -0.32690
C1008       C  0.97538864  0.22469919  0.26538000     0.36360
H1009       H  0.53584489  0.29161371  0.28594724     0.16730
O1010       O  0.54433894  0.30119405  0.22126413    -0.60190
H1011       H  0.96165442  0.20850710  0.21476359     0.16740
O1012       O  0.95170011  0.20031571  0.27937338    -0.60290
H1013       H  0.92864378  0.21531737  0.28305308     0.43740
H1014       H  0.56979611  0.29111194  0.22456308     0.43700
C1015       C  0.00640835  0.38884351  0.56648578    -0.05370
C1016       C  0.97178489  0.37378375  0.57069258    -0.32800
C1017       C  0.96787790  0.34051039  0.58865639     0.36450
C1018       C  0.99862318  0.32244991  0.60382170    -0.05720
C1019       C  0.53318972  0.33799753  0.60049588    -0.32690
C1020       C  0.53730198  0.37070153  0.58141491     0.36360
H1021       H  0.94783321  0.38711164  0.55885194     0.16730
O1022       O  0.93387240  0.32583247  0.59135626    -0.60190
H1023       H  0.55707467  0.32425302  0.61204556     0.16740
O1024       O  0.57133858  0.38513559  0.57809882    -0.60290
H1025       H  0.58202271  0.37277212  0.55779426     0.43740
H1026       H  0.93124303  0.30976688  0.57109174     0.43700
C1027       C  0.98443402  0.18365558  0.60192526    -0.05370
C1028       C  0.51151713  0.15548634  0.60753753    -0.32800
C1029       C  0.51153892  0.12182306  0.58946031     0.36450
C1030       C  0.98352405  0.11523168  0.56554455    -0.05720
C1031       C  0.95608381  0.14337290  0.56020725    -0.32690
C1032       C  0.95650440  0.17743961  0.57808151     0.36360
H1033       H  0.53341184  0.16001713  0.62551605     0.16730
O1034       O  0.53979629  0.09603464  0.59484529    -0.60190
H1035       H  0.93440203  0.13909927  0.54197077     0.16740
O1036       O  0.92892981  0.20400614  0.57287236    -0.60290
H1037       H  0.93552562  0.21703064  0.55181678     0.43740
H1038       H  0.55903336  0.10259776  0.57856021     0.43700
C1039       C  0.98277633  0.38416229  0.43469193    -0.05370
C1040       C  0.50593296  0.38015473  0.40656723    -0.32800
C1041       C  0.50779531  0.34702065  0.38762122     0.36450
C1042       C  0.98602443  0.31681079  0.39631434    -0.05720
C1043       C  0.96229679  0.32090214  0.42404027    -0.32690
C1044       C  0.96047230  0.35417161  0.44309091     0.36360
H1045       H  0.52383212  0.40237215  0.39973604     0.16730
O1046       O  0.53301216  0.34347129  0.36216018    -0.60190
H1047       H  0.94521578  0.29809499  0.43109526     0.16740
O1048       O  0.93770094  0.35644109  0.47046319    -0.60290
H1049       H  0.91433669  0.36785191  0.46173895     0.43740
H1050       H  0.52339373  0.35994413  0.34374951     0.43700
C1051       C  0.00257968  0.17646532  0.39507623    -0.05370
C1052       C  0.52945668  0.17311714  0.42047433    -0.32800
C1053       C  0.53387528  0.14031932  0.43963313     0.36450
C1054       C  0.01068628  0.11006038  0.43406185    -0.05720
C1055       C  0.98462901  0.11302488  0.40775388    -0.32690
C1056       C  0.98058934  0.14574531  0.38830514     0.36360
H1057       H  0.54699917  0.19625344  0.42567680     0.16730
O1058       O  0.56020292  0.13883362  0.46449147    -0.60190
H1059       H  0.96622332  0.09050663  0.40300642     0.16740
O1060       O  0.95332560  0.14841285  0.36434625    -0.60290
H1061       H  0.96275115  0.13362686  0.34481274     0.43740
H1062       H  0.58194114  0.12622007  0.45393678     0.43700
C1063       C  0.61928136  0.47733075  0.56594797    -0.05370
C1064       C  0.62072391  0.00184210  0.59379927    -0.32800
C1065       C  0.65276770  0.00513336  0.61274779     0.36450
C1066       C  0.68423038  0.48320016  0.60450867    -0.05720
C1067       C  0.68259474  0.45757153  0.57756181    -0.32690
C1068       C  0.65059890  0.45475176  0.55814904     0.36360
H1069       H  0.59737591  0.02009692  0.60014061     0.16730
O1070       O  0.65384781  0.03208082  0.63747137    -0.60190
H1071       H  0.70646701  0.44011277  0.57112348     0.16740
O1072       O  0.65049899  0.43023936  0.53144826    -0.60290
H1073       H  0.66146557  0.44385921  0.51245225     0.43740
H1074       H  0.63886308  0.02267674  0.65620454     0.43700
C1075       C  0.88257529  0.49083570  0.56300942    -0.05370
C1076       C  0.87177451  0.45906277  0.58058156    -0.32800
C1077       C  0.84067798  0.46082781  0.60084218     0.36450
C1078       C  0.81952625  0.49439202  0.60309170    -0.05720
C1079       C  0.83059821  0.02643495  0.58624011    -0.32690
C1080       C  0.86227232  0.02496719  0.56652859     0.36360
H1081       H  0.88718085  0.43264056  0.57819086     0.16730
O1082       O  0.83011895  0.42917818  0.61710098    -0.60190
H1083       H  0.81426247  0.05235324  0.58791564     0.16740
O1084       O  0.87157913  0.05622862  0.54897490    -0.60290
H1085       H  0.88737120  0.07025063  0.56461502     0.43740
H1086       H  0.84180091  0.43019350  0.63973760     0.43700
C1087       C  0.61626194  0.01857032  0.43418329    -0.05370
C1088       C  0.64542744  0.04083008  0.44366058    -0.32800
C1089       C  0.67769892  0.04052480  0.42470644     0.36450
C1090       C  0.68124756  0.51736676  0.39582799    -0.05720
C1091       C  0.65120474  0.49698594  0.38526707    -0.32690
C1092       C  0.61882106  0.49786056  0.40370901     0.36360
H1093       H  0.64374567  0.05774297  0.46637957     0.16730
O1094       O  0.70522487  0.06353069  0.43418194    -0.60190
H1095       H  0.65315523  0.47905950  0.36320069     0.16740
O1096       O  0.59068108  0.47665837  0.39243217    -0.60290
H1097       H  0.57538837  0.49372569  0.37794631     0.43740
H1098       H  0.71411158  0.05408504  0.45642520     0.43700
C1099       C  0.81753305  0.51008880  0.39696580    -0.05370
C1100       C  0.84645280  0.48339147  0.39312716    -0.32800
C1101       C  0.87859796  0.48586069  0.41238444     0.36450
C1102       C  0.88206252  0.51555348  0.43563133    -0.05720
C1103       C  0.85364887  0.04286678  0.43833097    -0.32690
C1104       C  0.82157406  0.04020670  0.41948786     0.36360
H1105       H  0.84376384  0.46017919  0.37574041     0.16730
O1106       O  0.90603213  0.45887136  0.40861649    -0.60190
H1107       H  0.85567355  0.06602811  0.45588198     0.16740
O1108       O  0.79452663  0.06776646  0.42261202    -0.60290
H1109       H  0.78407435  0.06438495  0.44540455     0.43740
H1110       H  0.92287348  0.46916842  0.39176262     0.43700
O1111       O  0.93527446  0.98888904  0.46453618    -0.80040
O1112       O  0.58522232  0.52858670  0.48696664    -0.80060
O1113       O  0.98929292  0.55088657  0.45189180    -0.80070
O1114       O  0.50708460  0.94309775  0.44844184    -0.80010
O1115       O  0.52805558  0.57894658  0.48553141    -0.80130
O1116       O  0.96885162  0.92179838  0.48399824    -0.80050
O1117       O  0.56100904  0.99155291  0.44941802    -0.80040
O1118       O  0.91891340  0.54826889  0.47426659    -0.80080
C1119       C  0.91353054  0.01777482  0.45897769     1.09650
C1120       C  0.58529975  0.51380838  0.45762081     1.09540
C1121       C  0.01034634  0.57763439  0.45767352     1.09670
C1122       C  0.48534201  0.91822564  0.45622976     1.09550
O1123       O  0.98814779  0.94964898  0.54832010    -0.80040
O1124       O  0.50559087  0.55334010  0.55267799    -0.80120
O1125       O  0.93414587  0.51451794  0.53351296    -0.80050
O1126       O  0.58643039  0.96439151  0.51459925    -0.80030
O1127       O  0.56035580  0.50141699  0.55209541    -0.80080
O1128       O  0.91857326  0.95619403  0.52364834    -0.80050
O1129       O  0.52883213  0.91793522  0.51713449    -0.80010
O1130       O  0.96810551  0.57880999  0.51653260    -0.80080
Co1131     Co  0.96416173  0.97154090  0.50805806     1.51530
Co1132     Co  0.54274593  0.53828763  0.51906093     1.51690
Co1133     Co  0.96424027  0.52992827  0.49115421     1.51570
Co1134     Co  0.54362672  0.95663082  0.48276262     1.51470
O1135       O  0.01015415  0.99886049  0.50018829    -1.41970
C1136       C  0.50941535  0.92124686  0.54379849     1.09580
C1137       C  0.98465914  0.58056868  0.54458373     1.09670
C1138       C  0.91294008  0.98699243  0.53891074     1.09610
C1139       C  0.58657026  0.47972679  0.54361035     1.09580
C1140       C  0.99726249  0.71243735  0.37650805     0.03230
C1141       C  0.99787163  0.71309197  0.34104168    -0.12920
C1142       C  0.99377807  0.74713476  0.32343557     0.00730
C1143       C  0.98878233  0.78067799  0.34172732    -0.11450
C1144       C  0.98883705  0.78076381  0.37722127     0.03220
C1145       C  0.99286616  0.74640986  0.39439195    -0.10870
H1146       H  0.00275638  0.68721393  0.32717938     0.08820
H1147       H  0.98479953  0.80683959  0.32817413     0.06340
H1148       H  0.99311158  0.74610659  0.42174611     0.06190
C1149       C  0.78305636  0.00669325  0.37785560     0.03230
C1150       C  0.74961130  0.50953859  0.39499427    -0.12920
C1151       C  0.71641331  0.01274644  0.37727798     0.00730
C1152       C  0.71683887  0.01008714  0.34189813    -0.11450
C1153       C  0.74995180  0.00404537  0.32451140     0.03220
C1154       C  0.78312656  0.00301434  0.34265310    -0.10870
H1155       H  0.74976821  0.50957936  0.42231510     0.08820
H1156       H  0.69142278  0.01320398  0.32777446     0.06340
H1157       H  0.80893572  0.99997072  0.32939939     0.06190
C1158       C  0.78515907  0.99532227  0.62190703     0.03230
C1159       C  0.75198897  0.99094487  0.60480317    -0.12840
C1160       C  0.71929425  0.98804296  0.62284135     0.00730
C1161       C  0.72030561  0.98977539  0.65829058    -0.11450
C1162       C  0.75340327  0.99518547  0.67550584     0.03220
C1163       C  0.78582818  0.99770139  0.65707488    -0.10870
H1164       H  0.75175653  0.48941159  0.57746943     0.08820
H1165       H  0.69553414  0.98603995  0.67256224     0.06340
H1166       H  0.81169972  0.00123123  0.67004441     0.06190
C1167       C  0.98638246  0.71936971  0.62097681     0.03230
C1168       C  0.98972164  0.75350243  0.60397001    -0.12920
C1169       C  0.99479477  0.78676278  0.62211549     0.00730
C1170       C  0.99574308  0.78595483  0.65756335    -0.11450
C1171       C  0.99169653  0.75208743  0.67501167     0.03220
C1172       C  0.98750882  0.71890439  0.65642015    -0.10870
H1173       H  0.98946417  0.75406547  0.57661646     0.08820
H1174       H  0.99976260  0.81164537  0.67147772     0.06340
H1175       H  0.98474172  0.69258395  0.66955638     0.06190
C1176       C  0.74305559  0.95842555  0.12673410     0.03230
C1177       C  0.74581115  0.95966844  0.16199194    -0.12920
C1178       C  0.74600652  0.99424341  0.17894130     0.00730
C1179       C  0.74250543  0.52759219  0.16028808    -0.11450
C1180       C  0.73946803  0.52665139  0.12501078     0.03220
C1181       C  0.74041353  0.99193859  0.10836283    -0.10870
H1182       H  0.74853082  0.93375822  0.17613522     0.08820
H1183       H  0.74119117  0.55433749  0.17329572     0.06340
H1184       H  0.73889318  0.99091065  0.08105199     0.06190
O1185       O  0.75942039  0.79722113  0.04771878    -0.80040
O1186       O  0.70083216  0.66658016  0.02457975    -0.80060
O1187       O  0.66565125  0.77897348  0.01743788    -0.80070
O1188       O  0.80998287  0.74330897  0.04891323    -0.80010
O1189       O  0.69752750  0.73833345  0.04747220    -0.80130
O1190       O  0.82973325  0.79568309  0.02589865    -0.80050
O1191       O  0.75144874  0.68785917  0.04815862    -0.80040
O1192       O  0.71888546  0.83078059  0.01890178    -0.80080
C1193       C  0.73827086  0.82573903  0.04522980     1.09650
C1194       C  0.72701185  0.66248452  0.04581321     1.09540
C1195       C  0.66934848  0.75946539  0.04398757     1.09670
C1196       C  0.83427180  0.76884687  0.04676340     1.09550
O1197       O  0.81010718  0.77270899  0.96237777    -0.80040
O1198       O  0.66434322  0.72022775  0.98185016    -0.80120
O1199       O  0.73543953  0.81347687  0.94906403    -0.80050
O1200       O  0.77628008  0.66890560  0.98038683    -0.80030
O1201       O  0.72303493  0.68713466  0.96223341    -0.80080
O1202       O  0.77678414  0.83291431  0.98400815    -0.80050
O1203       O  0.82698878  0.71864574  0.98126378    -0.80010
O1204       O  0.68360779  0.76270808  0.94772216    -0.80080
Co1205     Co  0.78478358  0.78212966  0.00559519     1.51530
Co1206     Co  0.71363849  0.71249777  0.00515113     1.51690
Co1207     Co  0.70383457  0.79365700  0.98372310     1.51570
Co1208     Co  0.78550741  0.71032987  0.01257586     1.51470
O1209       O  0.74439735  0.75240483  0.99120104    -1.41970
C1210       C  0.83090046  0.74431431  0.96019072     1.09580
C1211       C  0.66018383  0.73913033  0.95481144     1.09670
C1212       C  0.75853788  0.83719083  0.95680760     1.09610
C1213       C  0.75080900  0.66623678  0.95933552     1.09580
C1214       C  0.53701623  0.75646271  0.12443114     0.03230
C1215       C  0.00355676  0.75914011  0.10641244    -0.12920
C1216       C  0.96984788  0.75955683  0.12333320     0.00730
C1217       C  0.96954105  0.75765006  0.15865433    -0.11450
C1218       C  0.00244907  0.75451770  0.17720566     0.03220
C1219       C  0.53604032  0.75358104  0.15986949    -0.10870
H1220       H  0.00362883  0.76143189  0.07914557     0.08820
H1221       H  0.94353479  0.75839178  0.17171288     0.06340
H1222       H  0.56136905  0.74960771  0.17396181     0.06190
C1223       C  0.76452866  0.97061208  0.87567397     0.03230
C1224       C  0.76329369  0.96912060  0.84030013    -0.12920
C1225       C  0.76079963  0.00215202  0.82112464     0.00730
C1226       C  0.75889910  0.53691726  0.83777608    -0.11450
C1227       C  0.75924316  0.53839668  0.87305341     0.03220
C1228       C  0.76212916  0.00538704  0.89188546    -0.10870
H1229       H  0.76366909  0.94213218  0.82775718     0.08820
H1230       H  0.75685832  0.56272553  0.82342822     0.06340
H1231       H  0.76147678  0.00687484  0.91920824     0.06190
C1232       C  0.52622688  0.73774776  0.87524607     0.03230
C1233       C  0.52582832  0.74074211  0.83986782    -0.12920
C1234       C  0.99258222  0.74336665  0.82170402     0.00730
C1235       C  0.95932681  0.74350950  0.83957239    -0.11450
C1236       C  0.95929632  0.74046808  0.87498229     0.03220
C1237       C  0.99284422  0.73832476  0.89250503    -0.10870
H1238       H  0.55153357  0.74118380  0.82644663     0.08820
H1239       H  0.93351770  0.74497990  0.82590719     0.06340
H1240       H  0.99292797  0.73785670  0.91984250     0.06190
C1241       C  0.75221842  0.63687700  0.93351016    -0.05370
C1242       C  0.72090884  0.61618528  0.92782173    -0.32800
C1243       C  0.72266272  0.58454413  0.90712879     0.36450
C1244       C  0.75562543  0.57422945  0.89091424    -0.05720
C1245       C  0.78638428  0.59604558  0.89501469    -0.32690
C1246       C  0.78497856  0.62708902  0.91659817     0.36360
H1247       H  0.69560364  0.62335753  0.94089431     0.16730
O1248       O  0.69236709  0.56331781  0.90345625    -0.60190
H1249       H  0.81187682  0.58802801  0.88262636     0.16740
O1250       O  0.81552285  0.64781888  0.92085677    -0.60290
H1251       H  0.83068249  0.63415892  0.93804014     0.43740
H1252       H  0.69307934  0.54605661  0.92305130     0.43700
C1253       C  0.76212033  0.87017242  0.93477844    -0.05370
C1254       C  0.78799575  0.89706427  0.94231439    -0.32800
C1255       C  0.78956325  0.92980760  0.92302712     0.36450
C1256       C  0.76516742  0.93579019  0.89566783    -0.05720
C1257       C  0.73990176  0.90865306  0.88777154    -0.32690
C1258       C  0.73827203  0.87609673  0.90678694     0.36360
H1259       H  0.80674406  0.89300011  0.96341045     0.16730
O1260       O  0.81562089  0.95528900  0.93045110    -0.60190
H1261       H  0.72060429  0.91309363  0.86712916     0.16740
O1262       O  0.71211436  0.85106301  0.89840107    -0.60290
H1263       H  0.72369514  0.83439925  0.88112342     0.43740
H1264       H  0.80747907  0.96756892  0.95174894     0.43700
C1265       C  0.86752811  0.76636215  0.06824138    -0.05370
C1266       C  0.89145151  0.73486505  0.06485873    -0.32800
C1267       C  0.92508988  0.73271089  0.08215690     0.36450
C1268       C  0.93475159  0.76175747  0.10417726    -0.05720
C1269       C  0.91035952  0.79280366  0.10832809    -0.32690
C1270       C  0.87725500  0.79560541  0.08999682     0.36360
H1271       H  0.88448340  0.71229597  0.04793325     0.16730
O1272       O  0.94794733  0.70166172  0.07807810    -0.60190
H1273       H  0.91732207  0.81523819  0.12538333     0.16740
O1274       O  0.85407260  0.82635520  0.09427626    -0.60290
H1275       H  0.86726598  0.84772390  0.08494001     0.43740
H1276       H  0.96179667  0.70635075  0.05715581     0.43700
C1277       C  0.57264087  0.75563474  0.10587109    -0.05370
C1278       C  0.57627043  0.73401353  0.07634180    -0.32800
C1279       C  0.60818561  0.73423035  0.05702498     0.36450
C1280       C  0.63761857  0.75626948  0.06682817    -0.05720
C1281       C  0.63482701  0.77693948  0.09688602    -0.32690
C1282       C  0.60266774  0.77682236  0.11638900     0.36360
H1283       H  0.55406813  0.71692928  0.06796361     0.16730
O1284       O  0.60990047  0.71332387  0.02801249    -0.60190
H1285       H  0.65716670  0.79392303  0.10484991     0.16740
O1286       O  0.59998540  0.79943854  0.14436918    -0.60290
H1287       H  0.61604459  0.78707404  0.16165345     0.43740
H1288       H  0.62045615  0.68850673  0.03498663     0.43700
C1289       C  0.92450137  0.73941037  0.89418308    -0.05370
C1290       C  0.89678496  0.76732397  0.88939451    -0.32800
C1291       C  0.86539067  0.76868081  0.90973174     0.36450
C1292       C  0.86124005  0.74168949  0.93532620    -0.05720
C1293       C  0.88816693  0.71272132  0.93876315    -0.32690
C1294       C  0.91959009  0.71159147  0.91873651     0.36360
H1295       H  0.90006686  0.78890793  0.87060105     0.16730
O1296       O  0.83961699  0.79717433  0.90498743    -0.60190
H1297       H  0.88554936  0.69130981  0.95783266     0.16740
O1298       O  0.94518847  0.68277264  0.92296546    -0.60290
H1299       H  0.95715122  0.68751171  0.94504112     0.43740
H1300       H  0.82135139  0.78690213  0.88919484     0.43700
C1301       C  0.56148916  0.73560007  0.89433491    -0.05370
C1302       C  0.58901523  0.76019142  0.88616108    -0.32800
C1303       C  0.62168615  0.76047793  0.90466280     0.36450
C1304       C  0.62742703  0.73609010  0.93255036    -0.05720
C1305       C  0.60034431  0.71056471  0.94005653    -0.32690
C1306       C  0.56774487  0.71004065  0.92113579     0.36360
H1307       H  0.58482329  0.78016065  0.86581728     0.16730
O1308       O  0.64709180  0.78598754  0.89592629    -0.60190
H1309       H  0.60417448  0.69122169  0.96090681     0.16740
O1310       O  0.54213582  0.68450112  0.92920235    -0.60290
H1311       H  0.54653176  0.66329826  0.91334558     0.43740
H1312       H  0.66270611  0.77312081  0.87872978     0.43700
C1313       C  0.73523540  0.56198520  0.10564464    -0.05370
C1314       C  0.75935231  0.59093541  0.11165197    -0.32800
C1315       C  0.75655752  0.62424501  0.09310685     0.36450
C1316       C  0.72878785  0.62935170  0.06834606    -0.05720
C1317       C  0.70406202  0.60065987  0.06310818    -0.32690
C1318       C  0.70726708  0.56716080  0.08129143     0.36360
H1319       H  0.78101855  0.58737586  0.13032514     0.16730
O1320       O  0.78119837  0.65145757  0.09946006    -0.60190
H1321       H  0.68248286  0.60374156  0.04431151     0.16740
O1322       O  0.68217949  0.54011397  0.07588873    -0.60290
H1323       H  0.68835363  0.52904196  0.05355280     0.43740
H1324       H  0.80303219  0.64431682  0.08577636     0.43700
C1325       C  0.74341698  0.92225462  0.10866083    -0.05370
C1326       C  0.77005315  0.91498435  0.08399782    -0.32800
C1327       C  0.76937231  0.88249254  0.06438617     0.36450
C1328       C  0.74159425  0.85684121  0.06913102    -0.05720
C1329       C  0.71511160  0.86378451  0.09398982    -0.32690
C1330       C  0.71612800  0.89613305  0.11406286     0.36360
H1331       H  0.79096824  0.93504077  0.07939875     0.16730
O1332       O  0.79425132  0.87743636  0.03884270    -0.60190
H1333       H  0.69310843  0.84477028  0.09715559     0.16740
O1334       O  0.68894806  0.90331131  0.13717624    -0.60290
H1335       H  0.69649386  0.88869831  0.15748255     0.43740
H1336       H  0.81807865  0.87169611  0.05010697     0.43700
C1337       C  0.99232148  0.75086282  0.71260207    -0.05370
C1338       C  0.51456713  0.72364223  0.72920740    -0.32800
C1339       C  0.51501181  0.72100784  0.76452013     0.36450
C1340       C  0.99271869  0.74573105  0.78410102    -0.05720
C1341       C  0.97030608  0.77287724  0.76747452    -0.32690
C1342       C  0.96994977  0.77552891  0.73212170     0.36360
H1343       H  0.53174561  0.70420886  0.71470666     0.16730
O1344       O  0.53591442  0.69289613  0.77957414    -0.60190
H1345       H  0.95300820  0.79219119  0.78197507     0.16740
O1346       O  0.94701132  0.80181494  0.71691204    -0.60290
H1347       H  0.92431618  0.78854524  0.71161443     0.43740
H1348       H  0.56169648  0.70000562  0.77672581     0.43700
C1349       C  0.75459596  0.99691957  0.71278498    -0.05370
C1350       C  0.78122886  0.97516451  0.73033163    -0.32800
C1351       C  0.78359741  0.97664223  0.76551711     0.36450
C1352       C  0.75903603  0.00022538  0.78381433    -0.05720
C1353       C  0.73234504  0.52207314  0.76624314    -0.32690
C1354       C  0.73012387  0.52070713  0.73101340     0.36360
H1355       H  0.80034198  0.95686058  0.71668923     0.16730
O1356       O  0.81113613  0.95634854  0.78168263    -0.60190
H1357       H  0.71311612  0.54023469  0.77988965     0.16740
O1358       O  0.70444211  0.54322074  0.71465581    -0.60290
H1359       H  0.71736855  0.56617257  0.70866633     0.43740
H1360       H  0.80460889  0.92974390  0.77945539     0.43700
C1361       C  0.74985134  0.00023266  0.28729247    -0.05370
C1362       C  0.77333036  0.52160835  0.26794188    -0.32800
C1363       C  0.77295283  0.51931343  0.23271756     0.36450
C1364       C  0.74854118  0.99561821  0.21621672    -0.05720
C1365       C  0.72576783  0.97347761  0.23559054    -0.32690
C1366       C  0.72622675  0.97567198  0.27084425     0.36360
H1367       H  0.79174890  0.54054673  0.28016332     0.16730
O1368       O  0.79665834  0.54027478  0.21468068    -0.60190
H1369       H  0.70704908  0.95485935  0.22334765     0.16740
O1370       O  0.70445117  0.95277115  0.28907526    -0.60290
H1371       H  0.67906596  0.96308058  0.28581306     0.43740
H1372       H  0.81825058  0.52327475  0.21038425     0.43700
C1373       C  0.99629452  0.74812288  0.28597448    -0.05370
C1374       C  0.51962500  0.77328401  0.27055856    -0.32800
C1375       C  0.52242719  0.77514531  0.23532080     0.36450
C1376       C  0.00138092  0.75187184  0.21469958    -0.05720
C1377       C  0.97803708  0.72668197  0.23013325    -0.32690
C1378       C  0.97538451  0.72470313  0.26537413     0.36360
H1379       H  0.53585216  0.79160719  0.28593995     0.16730
O1380       O  0.54434462  0.80118761  0.22125697    -0.60190
H1381       H  0.96164700  0.70851289  0.21475813     0.16740
O1382       O  0.95169181  0.70032407  0.27936774    -0.60290
H1383       H  0.92863809  0.71532989  0.28304809     0.43740
H1384       H  0.56980091  0.79110362  0.22455743     0.43700
C1385       C  0.00644157  0.88884186  0.56648646    -0.05370
C1386       C  0.97181500  0.87378778  0.57068952    -0.32800
C1387       C  0.96790061  0.84051473  0.58865185     0.36450
C1388       C  0.99864150  0.82244866  0.60381941    -0.05720
C1389       C  0.53321121  0.83799058  0.60049744    -0.32690
C1390       C  0.53733090  0.87069432  0.58141785     0.36360
H1391       H  0.94786655  0.88711993  0.55884712     0.16730
O1392       O  0.93389207  0.82584292  0.59134850    -0.60190
H1393       H  0.55709279  0.82424193  0.61204916     0.16740
O1394       O  0.57137038  0.88512280  0.57810553    -0.60290
H1395       H  0.58205517  0.87275784  0.55780197     0.43740
H1396       H  0.93126139  0.80977949  0.57108276     0.43700
C1397       C  0.98441869  0.68365870  0.60192277    -0.05370
C1398       C  0.51149624  0.65548368  0.60753382    -0.32800
C1399       C  0.51150871  0.62181996  0.58945785     0.36450
C1400       C  0.98348971  0.61523402  0.56554466    -0.05720
C1401       C  0.95605516  0.64338131  0.56020850    -0.32690
C1402       C  0.95648518  0.67744842  0.57808151     0.36360
H1403       H  0.53339377  0.66000997  0.62551049     0.16730
O1404       O  0.53976112  0.59602546  0.59484153    -0.60190
H1405       H  0.93437056  0.63911207  0.54197389     0.16740
O1406       O  0.92891589  0.70402103  0.57287374    -0.60290
H1407       H  0.93551396  0.71704461  0.55181835     0.43740
H1408       H  0.55899843  0.60258353  0.57855486     0.43700
C1409       C  0.98281986  0.88416112  0.43468997    -0.05370
C1410       C  0.50597762  0.88014749  0.40656654    -0.32800
C1411       C  0.50783040  0.84701417  0.38761888     0.36450
C1412       C  0.98604909  0.81681157  0.39630961    -0.05720
C1413       C  0.96232068  0.82090925  0.42403424    -0.32690
C1414       C  0.96050538  0.85417775  0.44308613     0.36360
H1415       H  0.52388433  0.90235926  0.39973756     0.16730
O1416       O  0.53304735  0.84345783  0.36215850    -0.60190
H1417       H  0.94523162  0.79810774  0.43108713     0.16740
O1418       O  0.93773198  0.85645332  0.47045675    -0.60290
H1419       H  0.91437186  0.86787228  0.46173127     0.43740
H1420       H  0.52343384  0.85993339  0.34374776     0.43700
C1421       C  0.00256020  0.67646366  0.39506990    -0.05370
C1422       C  0.52943941  0.67310671  0.42046511    -0.32800
C1423       C  0.53384778  0.64030932  0.43962556     0.36450
C1424       C  0.01064578  0.61005997  0.43405916    -0.05720
C1425       C  0.98458629  0.61303244  0.40775357    -0.32690
C1426       C  0.98055710  0.64575240  0.38830282     0.36360
H1427       H  0.54699163  0.69623604  0.42566421     0.16730
O1428       O  0.56017906  0.63881471  0.46448050    -0.60190
H1429       H  0.96617126  0.59052141  0.40300972     0.16740
O1430       O  0.95329172  0.64842888  0.36434604    -0.60290
H1431       H  0.96271136  0.63364059  0.34481160     0.43740
H1432       H  0.58191033  0.62618957  0.45392432     0.43700
C1433       C  0.61932507  0.97732327  0.56595881    -0.05370
C1434       C  0.62068018  0.50185267  0.59378623    -0.32800
C1435       C  0.65272365  0.50514566  0.61273452     0.36450
C1436       C  0.68427480  0.98318914  0.60451979    -0.05720
C1437       C  0.68263774  0.95756096  0.57757266    -0.32690
C1438       C  0.65064178  0.95474296  0.55815983     0.36360
H1439       H  0.59733199  0.52010767  0.60012667     0.16730
O1440       O  0.65380367  0.53209488  0.63745658    -0.60190
H1441       H  0.70650961  0.94010220  0.57113313     0.16740
O1442       O  0.65054150  0.93023198  0.53145798    -0.60290
H1443       H  0.66151014  0.94385187  0.51246307     0.43740
H1444       H  0.63881796  0.52269274  0.65618989     0.43700
C1445       C  0.88261811  0.99083031  0.56300054    -0.05370
C1446       C  0.87180807  0.95905215  0.58055976    -0.32800
C1447       C  0.84071176  0.96081610  0.60082046     0.36450
C1448       C  0.81957001  0.99438524  0.60308422    -0.05720
C1449       C  0.83054584  0.52643702  0.58623493    -0.32690
C1450       C  0.86222074  0.52496895  0.56652463     0.36360
H1451       H  0.88720733  0.93262694  0.57815941     0.16730
O1452       O  0.83014432  0.92916207  0.61706708    -0.60190
H1453       H  0.81420264  0.55235148  0.58789947     0.16740
O1454       O  0.87151941  0.55622492  0.54895883    -0.60290
H1455       H  0.88730842  0.57025811  0.56459310     0.43740
H1456       H  0.84182427  0.93016520  0.63970520     0.43700
C1457       C  0.61620777  0.51857512  0.43417616    -0.05370
C1458       C  0.64537098  0.54083890  0.44365128    -0.32800
C1459       C  0.67764285  0.54053339  0.42469789     0.36450
C1460       C  0.68130109  0.01736202  0.39583373    -0.05720
C1461       C  0.65125643  0.99698448  0.38527171    -0.32690
C1462       C  0.61887312  0.99785956  0.40371400     0.36360
H1463       H  0.64368736  0.55775484  0.46636836     0.16730
O1464       O  0.70516717  0.56354213  0.43417165    -0.60190
H1465       H  0.65320468  0.97906062  0.36320354     0.16740
O1466       O  0.59073078  0.97666211  0.39243463    -0.60290
H1467       H  0.57543905  0.99373346  0.37795166     0.43740
H1468       H  0.71405325  0.55410022  0.45641636     0.43700
C1469       C  0.81758709  0.01008720  0.39695727    -0.05370
C1470       C  0.84650602  0.98338875  0.39311941    -0.32800
C1471       C  0.87865170  0.98585826  0.41237609     0.36450
C1472       C  0.88211746  0.01555246  0.43562139    -0.05720
C1473       C  0.85359252  0.54286590  0.43834314    -0.32690
C1474       C  0.82151812  0.54020618  0.41949921     0.36360
H1475       H  0.84381563  0.96017502  0.37573449     0.16730
O1476       O  0.90608465  0.95886732  0.40860989    -0.60190
H1477       H  0.85561627  0.56602581  0.45589582     0.16740
O1478       O  0.79446986  0.56776488  0.42262459    -0.60290
H1479       H  0.78401755  0.56438155  0.44541686     0.43740
H1480       H  0.92292660  0.96916221  0.39175539     0.43700
loop_ 
_geom_bond_atom_site_label_1 
_geom_bond_atom_site_label_2 
_geom_bond_distance 
_geom_bond_site_symmetry_2 
_ccdc_geom_bond_type 
O1            C9   1.295       .  A
O1          Co21   2.098       .  S
O2           C10   1.276       .  A
O2          Co22   2.031       .  S
O3           C11   1.269       .  A
O3          Co23   1.973       .  S
O4           C12   1.255   1_455  A
O4          Co24   1.971       .  S
O5          C751   1.277       .  A
O5          Co22   2.025       .  S
O6          C752   1.261       .  A
O6          Co21   2.016       .  S
O7          C380   1.256       .  A
O7          Co24   1.945       .  S
O8          C379   1.266       .  A
O8          Co23   1.876       .  S
C9          O378   1.266       .  A
C9          C362   1.474       .  S
C10         O377   1.256   1_545  A
C10         C347   1.482       .  S
C11         O745   1.277       .  A
C11         C314   1.491       .  S
C12         O746   1.261       .  A
C12        C1039   1.490       .  S
O13         C766   1.266       .  A
O13         Co21   1.964       .  S
O14         C767   1.254   1_455  A
O14         Co22   1.967       .  S
O15         C398   1.295   1_545  A
O15         Co23   2.098       .  S
O16         C399   1.272       .  A
O16         Co24   2.029       .  S
O17          C29   1.255   1_545  A
O17         Co22   1.947       .  S
O18          C28   1.264       .  A
O18         Co21   1.882       .  S
O19          C26   1.279       .  A
O19         Co24   2.033       .  S
O20          C27   1.264       .  A
O20         Co23   2.022       .  S
Co21         O25   2.002       .  S
Co22       O1135   2.019   1_545  S
Co23        O395   2.004   1_545  S
Co24        O765   2.027       .  S
O25       Co1132   2.019       .  S
O25        Co393   2.004       .  S
O25        Co764   2.027       .  S
C26         O753   1.266   1_455  A
C26        C1015   1.475       .  S
C27         O754   1.254       .  A
C27         C290   1.488       .  S
C28         O385   1.295       .  A
C28         C335   1.469       .  S
C29         O386   1.272       .  A
C29         C693   1.482       .  S
C30         C311   1.487       .  S
C30          C31   1.406       .  A
C30          C35   1.408       .  A
C31          C32   1.405       .  A
C31          H36   1.083       .  S
C32         C263   1.488       .  S
C32          C33   1.405       .  A
C33          C34   1.406       .  A
C33          H37   1.083       .  S
C34         C302   1.492       .  S
C34          C35   1.406       .  A
C35          H38   1.084       .  S
C39         C359   1.475       .  S
C39          C44   1.400       .  A
C39         C410   1.400       .  A
C40         C409   1.400       .  A
C40         C411   1.400       .  A
C40          H45   1.082       .  S
C41         C350   1.486       .  S
C41          C42   1.405       .  A
C41         C410   1.400       .  A
C42          C43   1.405       .  A
C42          H46   1.083       .  S
C43         C251   1.480       .  S
C43          C44   1.404       .  A
C44          H47   1.084       .  S
C48         C338   1.465       .  S
C48          C49   1.398       .  A
C48          C53   1.396       .  A
C49          C50   1.403       .  A
C49         H424   1.084       .  S
C50         C326   1.482       .  S
C50          C51   1.406       .  A
C51          C52   1.404       .  A
C51          H55   1.083       .  S
C52         C239   1.478       .  S
C52          C53   1.401       .  A
C53          H56   1.084       .  S
H54         C419   1.084       .  S
C57         C287   1.484       .  S
C57          C58   1.404       .  A
C57          C62   1.405       .  A
C58          C59   1.405       .  A
C58          H63   1.084       .  S
C59         C278   1.479       .  S
C59          C60   1.405       .  A
C60          C61   1.408       .  A
C60          H64   1.084       .  S
C61         C227   1.490       .  S
C61          C62   1.407       .  A
C62          H65   1.084       .  S
C66         C215   1.475       .  S
C66          C67   1.400       .  A
C66          C71   1.402       .  A
C67          C68   1.404       .  A
C67          H72   1.084       .  S
C68         C254   1.480       .  S
C68         C439   1.404       .  A
C69          C70   1.402       .  A
C69         C438   1.404   1_545  A
C69          H73   1.084       .  S
C70         C203   1.481       .  S
C70         C441   1.402   1_545  A
C71         C440   1.402       .  A
C71          H74   1.084       .  S
O75          C83   1.258       .  A
O75         Co95   1.978       .  S
O76          C84   1.274       .  A
O76         Co96   1.890       .  S
O77          C85   1.267       .  A
O77         Co97   2.022   1_554  S
O78          C86   1.300       .  A
O78         Co98   2.077       .  S
O79          C85   1.259       .  A
O79         Co96   1.993       .  S
O80          C86   1.272       .  A
O80         Co95   1.902       .  S
O81          C84   1.299       .  A
O81         Co98   2.070       .  S
O82          C83   1.266       .  A
O82         Co97   2.010   1_554  S
C83         C218   1.466       .  S
C84         C206   1.483       .  S
C85         C170   1.483       .  S
C86         C155   1.478       .  S
O87         C100   1.246       .  A
O87         Co95   1.973   1_556  S
O88         C101   1.273       .  A
O88         Co96   2.027   1_556  S
O89         C102   1.255       .  A
O89         Co97   1.951       .  S
O90         C103   1.252       .  A
O90         Co98   1.988   1_556  S
O91         C103   1.242       .  A
O91         Co96   1.951   1_556  S
O92         C102   1.270       .  A
O92         Co95   2.017   1_556  S
O93         C100   1.254       .  A
O93         Co98   1.996   1_556  S
O94         C101   1.257       .  A
O94         Co97   1.960       .  S
Co95         O99   1.933   1_554  S
Co96         O99   1.933   1_554  S
Co97         O99   2.069       .  S
Co98         O99   2.246   1_554  S
C100        C182   1.488       .  S
C101        C194   1.489       .  S
C102        C143   1.478       .  S
C103        C131   1.463       .  S
C104        C167   1.498       .  S
C104        C109   1.409       .  A
C104        C845   1.411       .  A
C105        C106   1.405       .  A
C105        C844   1.411       .  A
C105        H110   1.084       .  S
C106        C158   1.485       .  S
C106        C107   1.401       .  A
C107        C108   1.406       .  A
C107        H111   1.084       .  S
C108        C266   1.489       .  S
C108        C849   1.409       .  A
C109        C848   1.409       .  A
C109        H112   1.082       .  S
C113        C146   1.475       .  S
C113        C114   1.403       .  A
C113        C118   1.397       .  A
C114        C115   1.404       .  A
C114        H119   1.083       .  S
C115        C242   1.481       .  S
C115        C486   1.404       .  A
C116        C117   1.398       .  A
C116        C485   1.404       .  A
C116        H120   1.084       .  S
C117        C134   1.463       .  S
C117        C488   1.397       .  A
C118        C487   1.397       .  A
C118        H121   1.084       .  S
C122        C191   1.489       .  S
C122        C123   1.406       .  A
C122        C867   1.401   1_455  A
C123        C864   1.407   1_455  A
C123        H128   1.083       .  S
C124        C230   1.492       .  S
C124        C125   1.410       .  A
C124        C863   1.407       .  A
C125        C126   1.407       .  A
C125        H129   1.084       .  S
C126        C179   1.487       .  S
C126        C127   1.404       .  A
C127        C862   1.401       .  A
C127        H130   1.083       .  S
C131        C132   1.402       .  A
C131        C136   1.407       .  A
C132        C133   1.394       .  A
C132        H137   1.084       .  S
C133        C134   1.404       .  A
C133        O138   1.372       .  S
C134        C135   1.400       .  A
C135        C136   1.398       .  A
C135        H139   1.084       .  S
C136        O140   1.372       .  S
O138        H142   0.992       .  S
O140        H141   0.992       .  S
C143        C144   1.404       .  A
C143        C148   1.417       .  A
C144        C145   1.402       .  A
C144        H149   1.083       .  S
C145        C146   1.410       .  A
C145        O150   1.372       .  S
C146        C147   1.398       .  A
C147        C148   1.390       .  A
C147        H151   1.084       .  S
C148        O152   1.372       .  S
O150        H154   0.992       .  S
O152        H153   0.992       .  S
C155        C156   1.404       .  A
C155        C160   1.407       .  A
C156        C157   1.402       .  A
C156        H161   1.084       .  S
C157        C158   1.408       .  A
C157        O162   1.372       .  S
C158        C159   1.405       .  A
C159        C160   1.407       .  A
C159        H163   1.084       .  S
C160        O164   1.371       .  S
O162        H166   0.992       .  S
O164        H165   0.992       .  S
C167        C168   1.404       .  A
C167        C172   1.416       .  A
C168        C169   1.399       .  A
C168        H173   1.084       .  S
C169        C170   1.409       .  A
C169        O174   1.369       .  S
C170        C171   1.402       .  A
C171        C172   1.410       .  A
C171        H175   1.080       .  S
C172        O176   1.372       .  S
O174        H178   0.992       .  S
O176        H177   0.992       .  S
C179        C180   1.405       .  A
C179        C184   1.409       .  A
C180        C181   1.405       .  A
C180        H185   1.083       .  S
C181        C182   1.414       .  A
C181        O186   1.371       .  S
C182        C183   1.406       .  A
C183        C184   1.399       .  A
C183        H187   1.083       .  S
C184        O188   1.373       .  S
O186        H190   0.992       .  S
O188        H189   0.992       .  S
C191        C192   1.400       .  A
C191        C196   1.413       .  A
C192        C193   1.397       .  A
C192        H197   1.084       .  S
C193        C194   1.418       .  A
C193        O198   1.372       .  S
C194        C195   1.405       .  A
C195        C196   1.403       .  A
C195        H199   1.083       .  S
C196        O200   1.371       .  S
O198        H202   0.992       .  S
O200        H201   0.992       .  S
C203        C204   1.403       .  A
C203        C208   1.408       .  A
C204        C205   1.400       .  A
C204        H209   1.084       .  S
C205        C206   1.413       .  A
C205        O210   1.372       .  S
C206        C207   1.406       .  A
C207        C208   1.398       .  A
C207        H211   1.083       .  S
C208        O212   1.372       .  S
O210        H214   0.992       .  S
O212        H213   0.992       .  S
C215        C216   1.400       .  A
C215        C220   1.409       .  A
C216        C217   1.396       .  A
C216        H221   1.084       .  S
C217        C218   1.407       .  A
C217        O222   1.371       .  S
C218        C219   1.400       .  A
C219        C220   1.402       .  A
C219        H223   1.080       .  S
C220        O224   1.371       .  S
O222        H226   0.990       .  S
O224        H225   0.992       .  S
C227        C232   1.411       .  A
C227        C968   1.404       .  A
C228        C229   1.402       .  A
C228        C967   1.404   1_455  A
C228        H233   1.084       .  S
C229        C970   1.412   1_455  A
C229        O234   1.372       .  S
C230        C231   1.406       .  A
C230        C969   1.412       .  A
C231        C232   1.404       .  A
C231        H235   1.083       .  S
C232        O236   1.371       .  S
O234        H238   0.992       .  S
O236        H237   0.992       .  S
C239        C240   1.403       .  A
C239        C614   1.409       .  A
C240        C241   1.397       .  A
C240        H245   1.084       .  S
C241        C242   1.409       .  A
C241        O246   1.373       .  S
C242        C613   1.405       .  A
C243        C244   1.398       .  A
C243        C612   1.405       .  A
C243        H247   1.084       .  S
C244        C609   1.409   1_545  A
C244        O248   1.372       .  S
O246        H250   0.992       .  S
O248        H249   0.992       .  S
C251        C256   1.410       .  A
C251        C622   1.404       .  A
C252        C253   1.398       .  A
C252        C621   1.404       .  A
C252        H257   1.083       .  S
C253        C624   1.410   1_545  A
C253        O258   1.372       .  S
C254        C255   1.403       .  A
C254        C623   1.410       .  A
C255        C256   1.399       .  A
C255        H259   1.084       .  S
C256        O260   1.373       .  S
O258        H262   0.992       .  S
O260        H261   0.992       .  S
C263        C268   1.410       .  A
C263       C1004   1.406       .  A
C264        C265   1.402       .  A
C264       C1003   1.406   1_455  A
C264        H269   1.084       .  S
C265       C1006   1.410       .  A
C265        O270   1.372       .  S
C266        C267   1.407       .  A
C266       C1005   1.410       .  A
C267        C268   1.402       .  A
C267        H271   1.083       .  S
C268        O272   1.372       .  S
O270        H274   0.992       .  S
O272        H273   0.992       .  S
C275        C766   1.475       .  S
C275        C276   1.404       .  A
C275       C1020   1.407       .  A
C276        C277   1.399       .  A
C276        H281   1.084       .  S
C277        C278   1.405       .  A
C277        O282   1.372       .  S
C278       C1019   1.406       .  A
C279        C280   1.406       .  A
C279       C1018   1.406   1_455  A
C279        H283   1.083       .  S
C280       C1015   1.407       .  A
C280        O284   1.371       .  S
O282        H286   0.992       .  S
O284        H285   0.992       .  S
C287        C292   1.409       .  A
C287       C1028   1.400       .  A
C288        C289   1.398       .  A
C288       C1027   1.400   1_455  A
C288        H293   1.084       .  S
C289       C1030   1.416   1_455  A
C289        O294   1.372       .  S
C290        C291   1.407       .  A
C290       C1029   1.416       .  A
C291        C292   1.407       .  A
C291        H295   1.083       .  S
C292        O296   1.371       .  S
O294        H298   0.992       .  S
O296        H297   0.992       .  S
C299        C752   1.490       .  S
C299        C304   1.412       .  A
C299       C1040   1.407       .  A
C300        C301   1.399       .  A
C300       C1039   1.407   1_455  A
C300        H305   1.083       .  S
C301       C1042   1.410   1_455  A
C301        O306   1.373       .  S
C302        C303   1.407       .  A
C302       C1041   1.410       .  A
C303        C304   1.406       .  A
C303        H307   1.083       .  S
C304        O308   1.371       .  S
O306        H310   0.992       .  S
O308        H309   0.992       .  S
C311        C316   1.409       .  A
C311       C1052   1.403       .  A
C312        C313   1.401       .  A
C312       C1051   1.403       .  A
C312        H317   1.084       .  S
C313       C1054   1.415       .  A
C313        O318   1.372       .  S
C314        C315   1.408       .  A
C314       C1053   1.415       .  A
C315        C316   1.404       .  A
C315        H319   1.083       .  S
C316        O320   1.372       .  S
O318        H322   0.992       .  S
O320        H321   0.992       .  S
C323        C399   1.482       .  S
C323        C328   1.409       .  A
C323        C694   1.408       .  A
C324        C325   1.395       .  A
C324        C693   1.408   1_545  A
C324        H329   1.084       .  S
C325        C696   1.406   1_545  A
C325        O330   1.373       .  S
C326        C327   1.407       .  A
C326        C695   1.406       .  A
C327        C328   1.402       .  A
C327        H331   1.083       .  S
C328        O332   1.371       .  S
O330        H334   0.992       .  S
O332        H333   0.992       .  S
C335        C336   1.404       .  A
C335        C710   1.410       .  A
C336        C337   1.394       .  A
C336        H341   1.084       .  S
C337        C338   1.403       .  A
C337        O342   1.372       .  S
C338        C709   1.400       .  A
C339        C340   1.399       .  A
C339        C708   1.400   1_545  A
C339        H343   1.084       .  S
C340        C705   1.410   1_545  A
C340        O344   1.372       .  S
O342        H346   0.992       .  S
O344        H345   0.992       .  S
C347        C348   1.402       .  A
C347        C722   1.416   1_545  A
C348        C349   1.401       .  A
C348        H353   1.083       .  S
C349        C720   1.414       .  A
C349        O354   1.373       .  S
C350        C351   1.401       .  A
C350        C719   1.414       .  A
C351        C352   1.394       .  A
C351        H355   1.083       .  S
C352        C717   1.416       .  A
C352        O356   1.372       .  S
O354        H358   0.992       .  S
O356        H357   0.992       .  S
C359        C360   1.404       .  A
C359        C734   1.407       .  A
C360        C361   1.401       .  A
C360        H365   1.083       .  S
C361        C362   1.412       .  A
C361        O366   1.372       .  S
C362        C733   1.402       .  A
C363        C364   1.391       .  A
C363        C732   1.402       .  A
C363        H367   1.084       .  S
C364        C729   1.407       .  A
C364        O368   1.373       .  S
O366        H370   0.992       .  S
O368        H369   0.992       .  S
O371        C379   1.295   1_565  A
O371       Co391   2.098       .  S
O372        C380   1.276       .  A
O372       Co392   2.031       .  S
O373        C381   1.269       .  A
O373       Co393   1.973       .  S
O374        C382   1.255   1_455  A
O374       Co394   1.971       .  S
O375       C1121   1.277       .  A
O375       Co392   2.025       .  S
O376       C1122   1.261       .  A
O376       Co391   2.016       .  S
O377       Co394   1.945       .  S
O378       Co393   1.876       .  S
C379        C732   1.474       .  S
C380        C717   1.482       .  S
C381       O1115   1.277       .  A
C381        C684   1.491       .  S
C382       O1116   1.261       .  A
C382       C1409   1.490       .  S
O383       C1136   1.266       .  A
O383       Co391   1.964       .  S
O384       C1137   1.254   1_455  A
O384       Co392   1.967       .  S
O385       Co393   2.098       .  S
O386       Co394   2.029       .  S
O387        C399   1.255       .  A
O387       Co392   1.947       .  S
O388        C398   1.264       .  A
O388       Co391   1.882       .  S
O389        C396   1.279       .  A
O389       Co394   2.033       .  S
O390        C397   1.264       .  A
O390       Co393   2.022       .  S
Co391       O395   2.002       .  S
Co392       O765   2.019       .  S
Co394      O1135   2.027       .  S
O395       Co762   2.019   1_565  S
O395      Co1134   2.027       .  S
C396       O1123   1.266   1_455  A
C396       C1385   1.475       .  S
C397       O1124   1.254       .  A
C397        C660   1.488       .  S
C398        C705   1.469       .  S
C400        C681   1.487       .  S
C400        C401   1.406       .  A
C400        C405   1.408       .  A
C401        C402   1.405       .  A
C401        H406   1.083       .  S
C402        C633   1.488       .  S
C402        C403   1.405       .  A
C403        C404   1.406       .  A
C403        H407   1.083       .  S
C404        C672   1.492       .  S
C404        C405   1.406       .  A
C405        H408   1.084       .  S
C409        C729   1.475       .  S
C409        C414   1.400       .  A
C410        H415   1.082       .  S
C411        C720   1.486       .  S
C411        C412   1.405       .  A
C412        C413   1.405       .  A
C412        H416   1.083       .  S
C413        C621   1.480       .  S
C413        C414   1.404       .  A
C414        H417   1.084   1_545  S
C418        C708   1.465       .  S
C418        C419   1.398       .  A
C418        C423   1.396       .  A
C419        C420   1.403       .  A
C420        C696   1.482       .  S
C420        C421   1.406       .  A
C421        C422   1.404       .  A
C421        H425   1.083       .  S
C422        C609   1.478       .  S
C422        C423   1.401       .  A
C423        H426   1.084   1_565  S
C427        C657   1.484       .  S
C427        C428   1.404       .  A
C427        C432   1.405       .  A
C428        C429   1.405       .  A
C428        H433   1.084       .  S
C429        C648   1.479       .  S
C429        C430   1.405       .  A
C430        C431   1.408       .  A
C430        H434   1.084       .  S
C431        C597   1.490       .  S
C431        C432   1.407       .  A
C432        H435   1.084       .  S
C436        C585   1.475       .  S
C436        C437   1.400       .  A
C436        C441   1.402       .  A
C437        C438   1.404       .  A
C437        H442   1.084       .  S
C438        C624   1.480       .  S
C439        C440   1.402       .  A
C439        H443   1.084       .  S
C440        C573   1.481       .  S
C441        H444   1.084       .  S
O445        C453   1.258       .  A
O445       Co465   1.978       .  S
O446        C454   1.274       .  A
O446       Co466   1.890       .  S
O447        C455   1.267       .  A
O447       Co467   2.022   1_554  S
O448        C456   1.300       .  A
O448       Co468   2.077       .  S
O449        C455   1.259       .  A
O449       Co466   1.993       .  S
O450        C456   1.272       .  A
O450       Co465   1.902       .  S
O451        C454   1.299       .  A
O451       Co468   2.070       .  S
O452        C453   1.266       .  A
O452       Co467   2.010   1_554  S
C453        C588   1.466       .  S
C454        C576   1.483       .  S
C455        C540   1.483       .  S
C456        C525   1.478       .  S
O457        C470   1.246       .  A
O457       Co465   1.973   1_556  S
O458        C471   1.273       .  A
O458       Co466   2.027   1_556  S
O459        C472   1.255       .  A
O459       Co467   1.951       .  S
O460        C473   1.252       .  A
O460       Co468   1.988   1_556  S
O461        C473   1.242       .  A
O461       Co466   1.951   1_556  S
O462        C472   1.270       .  A
O462       Co465   2.017   1_556  S
O463        C470   1.254       .  A
O463       Co468   1.996   1_556  S
O464        C471   1.257       .  A
O464       Co467   1.960       .  S
Co465       O469   1.933   1_554  S
Co466       O469   1.933   1_554  S
Co467       O469   2.069       .  S
Co468       O469   2.246   1_554  S
C470        C552   1.488       .  S
C471        C564   1.489       .  S
C472        C513   1.478       .  S
C473        C501   1.463       .  S
C474        C537   1.498       .  S
C474       C1215   1.411       .  A
C474        C479   1.409       .  A
C475       C1214   1.411       .  A
C475        C476   1.405       .  A
C475        H480   1.084       .  S
C476        C528   1.485       .  S
C476        C477   1.401       .  A
C477        C478   1.406       .  A
C477        H481   1.084       .  S
C478        C636   1.489       .  S
C478       C1219   1.409       .  A
C479       C1218   1.409       .  A
C479        H482   1.082       .  S
C483        C516   1.475       .  S
C483        C484   1.403       .  A
C483        C488   1.397   1_565  A
C484        C485   1.404   1_565  A
C484        H489   1.083       .  S
C485        C612   1.481       .  S
C486        C487   1.398       .  A
C486        H490   1.084       .  S
C487        C504   1.463       .  S
C488        H491   1.084       .  S
C492        C561   1.489       .  S
C492        C493   1.406       .  A
C492       C1237   1.401   1_455  A
C493       C1234   1.407   1_455  A
C493        H498   1.083       .  S
C494        C600   1.492       .  S
C494       C1233   1.407       .  A
C494        C495   1.410       .  A
C495        C496   1.407       .  A
C495        H499   1.084       .  S
C496        C549   1.487       .  S
C496        C497   1.404       .  A
C497       C1232   1.401       .  A
C497        H500   1.083       .  S
C501        C502   1.402       .  A
C501        C506   1.407       .  A
C502        C503   1.394       .  A
C502        H507   1.084       .  S
C503        C504   1.404       .  A
C503        O508   1.372       .  S
C504        C505   1.400       .  A
C505        C506   1.398       .  A
C505        H509   1.084       .  S
C506        O510   1.372       .  S
O508        H512   0.992       .  S
O510        H511   0.992       .  S
C513        C514   1.404       .  A
C513        C518   1.417       .  A
C514        C515   1.402       .  A
C514        H519   1.083       .  S
C515        C516   1.410       .  A
C515        O520   1.372       .  S
C516        C517   1.398       .  A
C517        C518   1.390       .  A
C517        H521   1.084       .  S
C518        O522   1.372       .  S
O520        H524   0.992       .  S
O522        H523   0.992       .  S
C525        C526   1.404       .  A
C525        C530   1.407       .  A
C526        C527   1.402       .  A
C526        H531   1.084       .  S
C527        C528   1.408       .  A
C527        O532   1.372       .  S
C528        C529   1.405       .  A
C529        C530   1.407       .  A
C529        H533   1.084       .  S
C530        O534   1.371       .  S
O532        H536   0.992       .  S
O534        H535   0.992       .  S
C537        C538   1.404       .  A
C537        C542   1.416       .  A
C538        C539   1.399       .  A
C538        H543   1.084       .  S
C539        C540   1.409       .  A
C539        O544   1.369       .  S
C540        C541   1.402       .  A
C541        C542   1.410       .  A
C541        H545   1.080       .  S
C542        O546   1.372       .  S
O544        H548   0.992       .  S
O546        H547   0.992       .  S
C549        C550   1.405       .  A
C549        C554   1.409       .  A
C550        C551   1.405       .  A
C550        H555   1.083       .  S
C551        C552   1.414       .  A
C551        O556   1.371       .  S
C552        C553   1.406       .  A
C553        C554   1.399       .  A
C553        H557   1.083       .  S
C554        O558   1.373       .  S
O556        H560   0.992       .  S
O558        H559   0.992       .  S
C561        C562   1.400       .  A
C561        C566   1.413       .  A
C562        C563   1.397       .  A
C562        H567   1.084       .  S
C563        C564   1.418       .  A
C563        O568   1.372       .  S
C564        C565   1.405       .  A
C565        C566   1.403       .  A
C565        H569   1.083       .  S
C566        O570   1.371       .  S
O568        H572   0.992       .  S
O570        H571   0.992       .  S
C573        C574   1.403       .  A
C573        C578   1.408       .  A
C574        C575   1.400       .  A
C574        H579   1.084       .  S
C575        C576   1.413       .  A
C575        O580   1.372       .  S
C576        C577   1.406       .  A
C577        C578   1.398       .  A
C577        H581   1.083       .  S
C578        O582   1.372       .  S
O580        H584   0.992       .  S
O582        H583   0.992       .  S
C585        C586   1.400       .  A
C585        C590   1.409       .  A
C586        C587   1.396       .  A
C586        H591   1.084       .  S
C587        C588   1.407       .  A
C587        O592   1.371       .  S
C588        C589   1.400       .  A
C589        C590   1.402       .  A
C589        H593   1.080       .  S
C590        O594   1.371       .  S
O592        H596   0.990       .  S
O594        H595   0.992       .  S
C597       C1338   1.404       .  A
C597        C602   1.411       .  A
C598       C1337   1.404   1_455  A
C598        C599   1.402       .  A
C598        H603   1.084       .  S
C599       C1340   1.412   1_455  A
C599        O604   1.372       .  S
C600       C1339   1.412       .  A
C600        C601   1.406       .  A
C601        C602   1.404       .  A
C601        H605   1.083       .  S
C602        O606   1.371       .  S
O604        H608   0.992       .  S
O606        H607   0.992       .  S
C609        C610   1.403       .  A
C610        C611   1.397       .  A
C610        H615   1.084       .  S
C611        C612   1.409   1_565  A
C611        O616   1.373       .  S
C613        C614   1.398       .  A
C613        H617   1.084       .  S
C614        O618   1.372       .  S
O616        H620   0.992       .  S
O618        H619   0.992       .  S
C621        C626   1.410   1_545  A
C622        C623   1.398       .  A
C622        H627   1.083       .  S
C623        O628   1.372       .  S
C624        C625   1.403       .  A
C625        C626   1.399       .  A
C625        H629   1.084       .  S
C626        O630   1.373       .  S
O628        H632   0.992       .  S
O630        H631   0.992       .  S
C633       C1374   1.406       .  A
C633        C638   1.410       .  A
C634       C1373   1.406   1_455  A
C634        C635   1.402       .  A
C634        H639   1.084       .  S
C635       C1376   1.410       .  A
C635        O640   1.372       .  S
C636       C1375   1.410       .  A
C636        C637   1.407       .  A
C637        C638   1.402       .  A
C637        H641   1.083       .  S
C638        O642   1.372       .  S
O640        H644   0.992       .  S
O642        H643   0.992       .  S
C645       C1136   1.475       .  S
C645        C646   1.404       .  A
C645       C1390   1.407       .  A
C646        C647   1.399       .  A
C646        H651   1.084       .  S
C647        C648   1.405       .  A
C647        O652   1.372       .  S
C648       C1389   1.406       .  A
C649       C1388   1.406   1_455  A
C649        C650   1.406       .  A
C649        H653   1.083       .  S
C650       C1385   1.407       .  A
C650        O654   1.371       .  S
O652        H656   0.992       .  S
O654        H655   0.992       .  S
C657       C1398   1.400       .  A
C657        C662   1.409       .  A
C658       C1397   1.400   1_455  A
C658        C659   1.398       .  A
C658        H663   1.084       .  S
C659       C1400   1.416   1_455  A
C659        O664   1.372       .  S
C660       C1399   1.416       .  A
C660        C661   1.407       .  A
C661        C662   1.407       .  A
C661        H665   1.083       .  S
C662        O666   1.371       .  S
O664        H668   0.992       .  S
O666        H667   0.992       .  S
C669       C1122   1.490       .  S
C669       C1410   1.407       .  A
C669        C674   1.412       .  A
C670       C1409   1.407   1_455  A
C670        C671   1.399       .  A
C670        H675   1.083       .  S
C671       C1412   1.410   1_455  A
C671        O676   1.373       .  S
C672       C1411   1.410       .  A
C672        C673   1.407       .  A
C673        C674   1.406       .  A
C673        H677   1.083       .  S
C674        O678   1.371       .  S
O676        H680   0.992       .  S
O678        H679   0.992       .  S
C681       C1422   1.403       .  A
C681        C686   1.409       .  A
C682       C1421   1.403       .  A
C682        C683   1.401       .  A
C682        H687   1.084       .  S
C683       C1424   1.415       .  A
C683        O688   1.372       .  S
C684       C1423   1.415       .  A
C684        C685   1.408       .  A
C685        C686   1.404       .  A
C685        H689   1.083       .  S
C686        O690   1.372       .  S
O688        H692   0.992       .  S
O690        H691   0.992       .  S
C693        C698   1.409       .  A
C694        C695   1.395       .  A
C694        H699   1.084       .  S
C695        O700   1.373       .  S
C696        C697   1.407       .  A
C697        C698   1.402       .  A
C697        H701   1.083       .  S
C698        O702   1.371       .  S
O700        H704   0.992       .  S
O702        H703   0.992       .  S
C705        C706   1.404       .  A
C706        C707   1.394       .  A
C706        H711   1.084       .  S
C707        C708   1.403       .  A
C707        O712   1.372       .  S
C709        C710   1.399       .  A
C709        H713   1.084       .  S
C710        O714   1.372       .  S
O712        H716   0.992       .  S
O714        H715   0.992       .  S
C717        C718   1.402       .  A
C718        C719   1.401       .  A
C718        H723   1.083       .  S
C719        O724   1.373       .  S
C720        C721   1.401   1_545  A
C721        C722   1.394       .  A
C721        H725   1.083       .  S
C722        O726   1.372       .  S
O724        H728   0.992       .  S
O726        H727   0.992       .  S
C729        C730   1.404   1_545  A
C730        C731   1.401       .  A
C730        H735   1.083       .  S
C731        C732   1.412   1_565  A
C731        O736   1.372       .  S
C733        C734   1.391       .  A
C733        H737   1.084       .  S
C734        O738   1.373       .  S
O736        H740   0.992       .  S
O738        H739   0.992       .  S
O741        C749   1.295       .  A
O741       Co761   2.098       .  S
O742        C750   1.276       .  A
O742       Co762   2.031       .  S
O743        C751   1.269   1_655  A
O743       Co763   1.973       .  S
O744        C752   1.255       .  A
O744       Co764   1.971       .  S
O745       Co762   2.025       .  S
O746       Co761   2.016       .  S
O747       C1120   1.256       .  A
O747       Co764   1.945       .  S
O748       C1119   1.266       .  A
O748       Co763   1.876       .  S
C749       O1118   1.266       .  A
C749       C1102   1.474       .  S
C750       O1117   1.256   1_545  A
C750       C1087   1.482       .  S
C751       C1054   1.491       .  S
O753       Co761   1.964       .  S
O754       Co762   1.967       .  S
O755       C1138   1.295   1_545  A
O755       Co763   2.098       .  S
O756       C1139   1.272       .  A
O756       Co764   2.029       .  S
O757        C769   1.255   1_545  A
O757       Co762   1.947       .  S
O758        C768   1.264       .  A
O758       Co761   1.882       .  S
O759        C766   1.279       .  A
O759       Co764   2.033       .  S
O760        C767   1.264       .  A
O760       Co763   2.022       .  S
Co761       O765   2.002   1_655  S
Co763      O1135   2.004   1_645  S
O765      Co1133   2.004   1_455  S
C767       C1030   1.488       .  S
C768       O1125   1.295       .  A
C768       C1075   1.469       .  S
C769       O1126   1.272       .  A
C769       C1433   1.482       .  S
C770       C1051   1.487   1_655  S
C770        C771   1.406       .  A
C770        C775   1.408       .  A
C771        C772   1.405       .  A
C771        H776   1.083   1_655  S
C772       C1003   1.488       .  S
C772        C773   1.405       .  A
C773        C774   1.406       .  A
C773        H777   1.083       .  S
C774       C1042   1.492       .  S
C774        C775   1.406       .  A
C775        H778   1.084       .  S
C779       C1099   1.475       .  S
C779       C1150   1.400       .  A
C779        C784   1.400       .  A
C780       C1149   1.400       .  A
C780       C1151   1.400       .  A
C780        H785   1.082       .  S
C781       C1090   1.486       .  S
C781       C1150   1.400       .  A
C781        C782   1.405       .  A
C782        C783   1.405       .  A
C782        H786   1.083       .  S
C783        C991   1.480       .  S
C783        C784   1.404       .  A
C784        H787   1.084       .  S
C788       C1078   1.465       .  S
C788        C789   1.398       .  A
C788        C793   1.396       .  A
C789        C790   1.403       .  A
C789       H1164   1.084       .  S
C790       C1066   1.482       .  S
C790        C791   1.406       .  A
C791        C792   1.404       .  A
C791        H795   1.083       .  S
C792        C979   1.478       .  S
C792        C793   1.401       .  A
C793        H796   1.084       .  S
H794       C1159   1.084       .  S
C797       C1027   1.484       .  S
C797        C798   1.404       .  A
C797        C802   1.405       .  A
C798        C799   1.405       .  A
C798        H803   1.084       .  S
C799       C1018   1.479       .  S
C799        C800   1.405       .  A
C800        C801   1.408       .  A
C800        H804   1.084       .  S
C801        C967   1.490       .  S
C801        C802   1.407       .  A
C802        H805   1.084       .  S
C806        C955   1.475       .  S
C806        C807   1.400       .  A
C806        C811   1.402       .  A
C807        C808   1.404       .  A
C807        H812   1.084       .  S
C808        C994   1.480       .  S
C808       C1179   1.404       .  A
C809       C1178   1.404   1_545  A
C809        C810   1.402       .  A
C809        H813   1.084       .  S
C810        C943   1.481       .  S
C810       C1181   1.402   1_545  A
C811       C1180   1.402       .  A
C811        H814   1.084       .  S
O815        C823   1.258       .  A
O815       Co835   1.978       .  S
O816        C824   1.274       .  A
O816       Co836   1.890       .  S
O817        C825   1.267       .  A
O817       Co837   2.022   1_554  S
O818        C826   1.300       .  A
O818       Co838   2.077       .  S
O819        C825   1.259       .  A
O819       Co836   1.993       .  S
O820        C826   1.272       .  A
O820       Co835   1.902       .  S
O821        C824   1.299       .  A
O821       Co838   2.070       .  S
O822        C823   1.266       .  A
O822       Co837   2.010   1_554  S
C823        C958   1.466       .  S
C824        C946   1.483       .  S
C825        C910   1.483       .  S
C826        C895   1.478       .  S
O827        C840   1.246       .  A
O827       Co835   1.973   1_556  S
O828        C841   1.273       .  A
O828       Co836   2.027   1_556  S
O829        C842   1.255       .  A
O829       Co837   1.951       .  S
O830        C843   1.252       .  A
O830       Co838   1.988   1_556  S
O831        C843   1.242       .  A
O831       Co836   1.951   1_556  S
O832        C842   1.270       .  A
O832       Co835   2.017   1_556  S
O833        C840   1.254       .  A
O833       Co838   1.996   1_556  S
O834        C841   1.257       .  A
O834       Co837   1.960       .  S
Co835       O839   1.933   1_554  S
Co836       O839   1.933   1_554  S
Co837       O839   2.069       .  S
Co838       O839   2.246   1_554  S
C840        C922   1.488       .  S
C841        C934   1.489       .  S
C842        C883   1.478       .  S
C843        C871   1.463       .  S
C844        C907   1.498       .  S
C844        C849   1.409       .  A
C845        C846   1.405   1_455  A
C845        H850   1.084       .  S
C846        C898   1.485       .  S
C846        C847   1.401       .  A
C847        C848   1.406   1_655  A
C847        H851   1.084       .  S
C848       C1006   1.489       .  S
C849        H852   1.082       .  S
C853        C886   1.475       .  S
C853        C854   1.403       .  A
C853        C858   1.397       .  A
C854        C855   1.404       .  A
C854        H859   1.083       .  S
C855        C982   1.481       .  S
C855       C1226   1.404       .  A
C856       C1225   1.404       .  A
C856        C857   1.398       .  A
C856        H860   1.084       .  S
C857        C874   1.463       .  S
C857       C1228   1.397       .  A
C858       C1227   1.397       .  A
C858        H861   1.084       .  S
C862        C931   1.489       .  S
C862        C863   1.406       .  A
C863        H868   1.083       .  S
C864        C970   1.492       .  S
C864        C865   1.410       .  A
C865        C866   1.407       .  A
C865        H869   1.084       .  S
C866        C919   1.487       .  S
C866        C867   1.404       .  A
C867        H870   1.083       .  S
C871        C872   1.402       .  A
C871        C876   1.407       .  A
C872        C873   1.394       .  A
C872        H877   1.084       .  S
C873        C874   1.404       .  A
C873        O878   1.372       .  S
C874        C875   1.400       .  A
C875        C876   1.398       .  A
C875        H879   1.084       .  S
C876        O880   1.372       .  S
O878        H882   0.992       .  S
O880        H881   0.992       .  S
C883        C884   1.404       .  A
C883        C888   1.417       .  A
C884        C885   1.402       .  A
C884        H889   1.083       .  S
C885        C886   1.410       .  A
C885        O890   1.372       .  S
C886        C887   1.398       .  A
C887        C888   1.390       .  A
C887        H891   1.084       .  S
C888        O892   1.372       .  S
O890        H894   0.992       .  S
O892        H893   0.992       .  S
C895        C896   1.404       .  A
C895        C900   1.407       .  A
C896        C897   1.402       .  A
C896        H901   1.084       .  S
C897        C898   1.408       .  A
C897        O902   1.372       .  S
C898        C899   1.405       .  A
C899        C900   1.407       .  A
C899        H903   1.084       .  S
C900        O904   1.371       .  S
O902        H906   0.992       .  S
O904        H905   0.992       .  S
C907        C908   1.404       .  A
C907        C912   1.416       .  A
C908        C909   1.399       .  A
C908        H913   1.084       .  S
C909        C910   1.409       .  A
C909        O914   1.369       .  S
C910        C911   1.402       .  A
C911        C912   1.410       .  A
C911        H915   1.080       .  S
C912        O916   1.372       .  S
O914        H918   0.992       .  S
O916        H917   0.992       .  S
C919        C920   1.405       .  A
C919        C924   1.409       .  A
C920        C921   1.405       .  A
C920        H925   1.083       .  S
C921        C922   1.414       .  A
C921        O926   1.371       .  S
C922        C923   1.406       .  A
C923        C924   1.399       .  A
C923        H927   1.083       .  S
C924        O928   1.373       .  S
O926        H930   0.992       .  S
O928        H929   0.992       .  S
C931        C932   1.400       .  A
C931        C936   1.413       .  A
C932        C933   1.397       .  A
C932        H937   1.084       .  S
C933        C934   1.418       .  A
C933        O938   1.372       .  S
C934        C935   1.405       .  A
C935        C936   1.403       .  A
C935        H939   1.083       .  S
C936        O940   1.371       .  S
O938        H942   0.992       .  S
O940        H941   0.992       .  S
C943        C944   1.403       .  A
C943        C948   1.408       .  A
C944        C945   1.400       .  A
C944        H949   1.084       .  S
C945        C946   1.413       .  A
C945        O950   1.372       .  S
C946        C947   1.406       .  A
C947        C948   1.398       .  A
C947        H951   1.083       .  S
C948        O952   1.372       .  S
O950        H954   0.992       .  S
O952        H953   0.992       .  S
C955        C956   1.400       .  A
C955        C960   1.409       .  A
C956        C957   1.396       .  A
C956        H961   1.084       .  S
C957        C958   1.407       .  A
C957        O962   1.371       .  S
C958        C959   1.400       .  A
C959        C960   1.402       .  A
C959        H963   1.080       .  S
C960        O964   1.371       .  S
O962        H966   0.990       .  S
O964        H965   0.992       .  S
C967        C972   1.411       .  A
C968        C969   1.402       .  A
C968        H973   1.084       .  S
C969        O974   1.372       .  S
C970        C971   1.406       .  A
C971        C972   1.404       .  A
C971        H975   1.083       .  S
C972        O976   1.371       .  S
O974        H978   0.992       .  S
O976        H977   0.992       .  S
C979        C980   1.403       .  A
C979       C1354   1.409       .  A
C980        C981   1.397       .  A
C980        H985   1.084       .  S
C981        C982   1.409       .  A
C981        O986   1.373       .  S
C982       C1353   1.405       .  A
C983       C1352   1.405       .  A
C983        C984   1.398       .  A
C983        H987   1.084       .  S
C984       C1349   1.409   1_545  A
C984        O988   1.372       .  S
O986        H990   0.992       .  S
O988        H989   0.992       .  S
C991       C1362   1.404       .  A
C991        C996   1.410       .  A
C992       C1361   1.404       .  A
C992        C993   1.398       .  A
C992        H997   1.083       .  S
C993       C1364   1.410   1_545  A
C993        O998   1.372       .  S
C994       C1363   1.410       .  A
C994        C995   1.403       .  A
C995        C996   1.399       .  A
C995        H999   1.084       .  S
C996       O1000   1.373       .  S
O998       H1002   0.992       .  S
O1000      H1001   0.992       .  S
C1003      C1008   1.410       .  A
C1004      C1005   1.402       .  A
C1004      H1009   1.084       .  S
C1005      O1010   1.372       .  S
C1006      C1007   1.407   1_455  A
C1007      C1008   1.402       .  A
C1007      H1011   1.083       .  S
C1008      O1012   1.372       .  S
O1010      H1014   0.992       .  S
O1012      H1013   0.992       .  S
C1015      C1016   1.404   1_455  A
C1016      C1017   1.399       .  A
C1016      H1021   1.084       .  S
C1017      C1018   1.405       .  A
C1017      O1022   1.372       .  S
C1019      C1020   1.406       .  A
C1019      H1023   1.083       .  S
C1020      O1024   1.371       .  S
O1022      H1026   0.992       .  S
O1024      H1025   0.992       .  S
C1027      C1032   1.409       .  A
C1028      C1029   1.398       .  A
C1028      H1033   1.084       .  S
C1029      O1034   1.372       .  S
C1030      C1031   1.407       .  A
C1031      C1032   1.407       .  A
C1031      H1035   1.083       .  S
C1032      O1036   1.371       .  S
O1034      H1038   0.992       .  S
O1036      H1037   0.992       .  S
C1039      C1044   1.412       .  A
C1040      C1041   1.399       .  A
C1040      H1045   1.083       .  S
C1041      O1046   1.373       .  S
C1042      C1043   1.407       .  A
C1043      C1044   1.406       .  A
C1043      H1047   1.083       .  S
C1044      O1048   1.371       .  S
O1046      H1050   0.992       .  S
O1048      H1049   0.992       .  S
C1051      C1056   1.409   1_455  A
C1052      C1053   1.401       .  A
C1052      H1057   1.084       .  S
C1053      O1058   1.372       .  S
C1054      C1055   1.408   1_455  A
C1055      C1056   1.404       .  A
C1055      H1059   1.083       .  S
C1056      O1060   1.372       .  S
O1058      H1062   0.992       .  S
O1060      H1061   0.992       .  S
C1063      C1139   1.482       .  S
C1063      C1434   1.408       .  A
C1063      C1068   1.409       .  A
C1064      C1433   1.408   1_545  A
C1064      C1065   1.395       .  A
C1064      H1069   1.084       .  S
C1065      C1436   1.406   1_545  A
C1065      O1070   1.373       .  S
C1066      C1435   1.406       .  A
C1066      C1067   1.407       .  A
C1067      C1068   1.402       .  A
C1067      H1071   1.083       .  S
C1068      O1072   1.371       .  S
O1070      H1074   0.992       .  S
O1072      H1073   0.992       .  S
C1075      C1076   1.404       .  A
C1075      C1450   1.410       .  A
C1076      C1077   1.394       .  A
C1076      H1081   1.084       .  S
C1077      C1078   1.403       .  A
C1077      O1082   1.372       .  S
C1078      C1449   1.400       .  A
C1079      C1448   1.400   1_545  A
C1079      C1080   1.399       .  A
C1079      H1083   1.084       .  S
C1080      C1445   1.410   1_545  A
C1080      O1084   1.372       .  S
O1082      H1086   0.992       .  S
O1084      H1085   0.992       .  S
C1087      C1088   1.402       .  A
C1087      C1462   1.416   1_545  A
C1088      C1089   1.401       .  A
C1088      H1093   1.083       .  S
C1089      C1460   1.414       .  A
C1089      O1094   1.373       .  S
C1090      C1459   1.414       .  A
C1090      C1091   1.401       .  A
C1091      C1092   1.394       .  A
C1091      H1095   1.083       .  S
C1092      C1457   1.416       .  A
C1092      O1096   1.372       .  S
O1094      H1098   0.992       .  S
O1096      H1097   0.992       .  S
C1099      C1100   1.404       .  A
C1099      C1474   1.407       .  A
C1100      C1101   1.401       .  A
C1100      H1105   1.083       .  S
C1101      C1102   1.412       .  A
C1101      O1106   1.372       .  S
C1102      C1473   1.402       .  A
C1103      C1472   1.402       .  A
C1103      C1104   1.391       .  A
C1103      H1107   1.084       .  S
C1104      C1469   1.407       .  A
C1104      O1108   1.373       .  S
O1106      H1110   0.992       .  S
O1108      H1109   0.992       .  S
O1111      C1119   1.295   1_565  A
O1111     Co1131   2.098       .  S
O1112      C1120   1.276       .  A
O1112     Co1132   2.031       .  S
O1113      C1121   1.269   1_655  A
O1113     Co1133   1.973       .  S
O1114      C1122   1.255       .  A
O1114     Co1134   1.971       .  S
O1115     Co1132   2.025       .  S
O1116     Co1131   2.016       .  S
O1117     Co1134   1.945       .  S
O1118     Co1133   1.876       .  S
C1119      C1472   1.474       .  S
C1120      C1457   1.482       .  S
C1121      C1424   1.491       .  S
O1123     Co1131   1.964       .  S
O1124     Co1132   1.967       .  S
O1125     Co1133   2.098       .  S
O1126     Co1134   2.029       .  S
O1127      C1139   1.255       .  A
O1127     Co1132   1.947       .  S
O1128      C1138   1.264       .  A
O1128     Co1131   1.882       .  S
O1129      C1136   1.279       .  A
O1129     Co1134   2.033       .  S
O1130      C1137   1.264       .  A
O1130     Co1133   2.022       .  S
Co1131     O1135   2.002   1_655  S
C1137      C1400   1.488       .  S
C1138      C1445   1.469       .  S
C1140      C1421   1.487   1_655  S
C1140      C1141   1.406       .  A
C1140      C1145   1.408       .  A
C1141      C1142   1.405       .  A
C1141      H1146   1.083   1_655  S
C1142      C1373   1.488       .  S
C1142      C1143   1.405       .  A
C1143      C1144   1.406       .  A
C1143      H1147   1.083       .  S
C1144      C1412   1.492       .  S
C1144      C1145   1.406       .  A
C1145      H1148   1.084       .  S
C1149      C1469   1.475       .  S
C1149      C1154   1.400       .  A
C1150      H1155   1.082       .  S
C1151      C1460   1.486       .  S
C1151      C1152   1.405       .  A
C1152      C1153   1.405       .  A
C1152      H1156   1.083       .  S
C1153      C1361   1.480       .  S
C1153      C1154   1.404       .  A
C1154      H1157   1.084   1_545  S
C1158      C1448   1.465       .  S
C1158      C1159   1.398       .  A
C1158      C1163   1.396       .  A
C1159      C1160   1.403       .  A
C1160      C1436   1.482       .  S
C1160      C1161   1.406       .  A
C1161      C1162   1.404       .  A
C1161      H1165   1.083       .  S
C1162      C1349   1.478       .  S
C1162      C1163   1.401       .  A
C1163      H1166   1.084   1_565  S
C1167      C1397   1.484       .  S
C1167      C1168   1.404       .  A
C1167      C1172   1.405       .  A
C1168      C1169   1.405       .  A
C1168      H1173   1.084       .  S
C1169      C1388   1.479       .  S
C1169      C1170   1.405       .  A
C1170      C1171   1.408       .  A
C1170      H1174   1.084       .  S
C1171      C1337   1.490       .  S
C1171      C1172   1.407       .  A
C1172      H1175   1.084       .  S
C1176      C1325   1.475       .  S
C1176      C1177   1.400       .  A
C1176      C1181   1.402       .  A
C1177      C1178   1.404       .  A
C1177      H1182   1.084       .  S
C1178      C1364   1.480       .  S
C1179      C1180   1.402       .  A
C1179      H1183   1.084       .  S
C1180      C1313   1.481       .  S
C1181      H1184   1.084       .  S
O1185      C1193   1.258       .  A
O1185     Co1205   1.978       .  S
O1186      C1194   1.274       .  A
O1186     Co1206   1.890       .  S
O1187      C1195   1.267       .  A
O1187     Co1207   2.022   1_554  S
O1188      C1196   1.300       .  A
O1188     Co1208   2.077       .  S
O1189      C1195   1.259       .  A
O1189     Co1206   1.993       .  S
O1190      C1196   1.272       .  A
O1190     Co1205   1.902       .  S
O1191      C1194   1.299       .  A
O1191     Co1208   2.070       .  S
O1192      C1193   1.266       .  A
O1192     Co1207   2.010   1_554  S
C1193      C1328   1.466       .  S
C1194      C1316   1.483       .  S
C1195      C1280   1.483       .  S
C1196      C1265   1.478       .  S
O1197      C1210   1.246       .  A
O1197     Co1205   1.973   1_556  S
O1198      C1211   1.273       .  A
O1198     Co1206   2.027   1_556  S
O1199      C1212   1.255       .  A
O1199     Co1207   1.951       .  S
O1200      C1213   1.252       .  A
O1200     Co1208   1.988   1_556  S
O1201      C1213   1.242       .  A
O1201     Co1206   1.951   1_556  S
O1202      C1212   1.270       .  A
O1202     Co1205   2.017   1_556  S
O1203      C1210   1.254       .  A
O1203     Co1208   1.996   1_556  S
O1204      C1211   1.257       .  A
O1204     Co1207   1.960       .  S
Co1205     O1209   1.933   1_554  S
Co1206     O1209   1.933   1_554  S
Co1207     O1209   2.069       .  S
Co1208     O1209   2.246   1_554  S
C1210      C1292   1.488       .  S
C1211      C1304   1.489       .  S
C1212      C1253   1.478       .  S
C1213      C1241   1.463       .  S
C1214      C1277   1.498       .  S
C1214      C1219   1.409       .  A
C1215      C1216   1.405   1_455  A
C1215      H1220   1.084       .  S
C1216      C1268   1.485       .  S
C1216      C1217   1.401       .  A
C1217      C1218   1.406   1_655  A
C1217      H1221   1.084       .  S
C1218      C1376   1.489       .  S
C1219      H1222   1.082       .  S
C1223      C1256   1.475       .  S
C1223      C1224   1.403       .  A
C1223      C1228   1.397   1_565  A
C1224      C1225   1.404   1_565  A
C1224      H1229   1.083       .  S
C1225      C1352   1.481       .  S
C1226      C1227   1.398       .  A
C1226      H1230   1.084       .  S
C1227      C1244   1.463       .  S
C1228      H1231   1.084       .  S
C1232      C1301   1.489       .  S
C1232      C1233   1.406       .  A
C1233      H1238   1.083       .  S
C1234      C1340   1.492       .  S
C1234      C1235   1.410       .  A
C1235      C1236   1.407       .  A
C1235      H1239   1.084       .  S
C1236      C1289   1.487       .  S
C1236      C1237   1.404       .  A
C1237      H1240   1.083       .  S
C1241      C1242   1.402       .  A
C1241      C1246   1.407       .  A
C1242      C1243   1.394       .  A
C1242      H1247   1.084       .  S
C1243      C1244   1.404       .  A
C1243      O1248   1.372       .  S
C1244      C1245   1.400       .  A
C1245      C1246   1.398       .  A
C1245      H1249   1.084       .  S
C1246      O1250   1.372       .  S
O1248      H1252   0.992       .  S
O1250      H1251   0.992       .  S
C1253      C1254   1.404       .  A
C1253      C1258   1.417       .  A
C1254      C1255   1.402       .  A
C1254      H1259   1.083       .  S
C1255      C1256   1.410       .  A
C1255      O1260   1.372       .  S
C1256      C1257   1.398       .  A
C1257      C1258   1.390       .  A
C1257      H1261   1.084       .  S
C1258      O1262   1.372       .  S
O1260      H1264   0.992       .  S
O1262      H1263   0.992       .  S
C1265      C1266   1.404       .  A
C1265      C1270   1.407       .  A
C1266      C1267   1.402       .  A
C1266      H1271   1.084       .  S
C1267      C1268   1.408       .  A
C1267      O1272   1.372       .  S
C1268      C1269   1.405       .  A
C1269      C1270   1.407       .  A
C1269      H1273   1.084       .  S
C1270      O1274   1.371       .  S
O1272      H1276   0.992       .  S
O1274      H1275   0.992       .  S
C1277      C1278   1.404       .  A
C1277      C1282   1.416       .  A
C1278      C1279   1.399       .  A
C1278      H1283   1.084       .  S
C1279      C1280   1.409       .  A
C1279      O1284   1.369       .  S
C1280      C1281   1.402       .  A
C1281      C1282   1.410       .  A
C1281      H1285   1.080       .  S
C1282      O1286   1.372       .  S
O1284      H1288   0.992       .  S
O1286      H1287   0.992       .  S
C1289      C1290   1.405       .  A
C1289      C1294   1.409       .  A
C1290      C1291   1.405       .  A
C1290      H1295   1.083       .  S
C1291      C1292   1.414       .  A
C1291      O1296   1.371       .  S
C1292      C1293   1.406       .  A
C1293      C1294   1.399       .  A
C1293      H1297   1.083       .  S
C1294      O1298   1.373       .  S
O1296      H1300   0.992       .  S
O1298      H1299   0.992       .  S
C1301      C1302   1.400       .  A
C1301      C1306   1.413       .  A
C1302      C1303   1.397       .  A
C1302      H1307   1.084       .  S
C1303      C1304   1.418       .  A
C1303      O1308   1.372       .  S
C1304      C1305   1.405       .  A
C1305      C1306   1.403       .  A
C1305      H1309   1.083       .  S
C1306      O1310   1.371       .  S
O1308      H1312   0.992       .  S
O1310      H1311   0.992       .  S
C1313      C1314   1.403       .  A
C1313      C1318   1.408       .  A
C1314      C1315   1.400       .  A
C1314      H1319   1.084       .  S
C1315      C1316   1.413       .  A
C1315      O1320   1.372       .  S
C1316      C1317   1.406       .  A
C1317      C1318   1.398       .  A
C1317      H1321   1.083       .  S
C1318      O1322   1.372       .  S
O1320      H1324   0.992       .  S
O1322      H1323   0.992       .  S
C1325      C1326   1.400       .  A
C1325      C1330   1.409       .  A
C1326      C1327   1.396       .  A
C1326      H1331   1.084       .  S
C1327      C1328   1.407       .  A
C1327      O1332   1.371       .  S
C1328      C1329   1.400       .  A
C1329      C1330   1.402       .  A
C1329      H1333   1.080       .  S
C1330      O1334   1.371       .  S
O1332      H1336   0.990       .  S
O1334      H1335   0.992       .  S
C1337      C1342   1.411       .  A
C1338      C1339   1.402       .  A
C1338      H1343   1.084       .  S
C1339      O1344   1.372       .  S
C1340      C1341   1.406       .  A
C1341      C1342   1.404       .  A
C1341      H1345   1.083       .  S
C1342      O1346   1.371       .  S
O1344      H1348   0.992       .  S
O1346      H1347   0.992       .  S
C1349      C1350   1.403       .  A
C1350      C1351   1.397       .  A
C1350      H1355   1.084       .  S
C1351      C1352   1.409   1_565  A
C1351      O1356   1.373       .  S
C1353      C1354   1.398       .  A
C1353      H1357   1.084       .  S
C1354      O1358   1.372       .  S
O1356      H1360   0.992       .  S
O1358      H1359   0.992       .  S
C1361      C1366   1.410   1_545  A
C1362      C1363   1.398       .  A
C1362      H1367   1.083       .  S
C1363      O1368   1.372       .  S
C1364      C1365   1.403       .  A
C1365      C1366   1.399       .  A
C1365      H1369   1.084       .  S
C1366      O1370   1.373       .  S
O1368      H1372   0.992       .  S
O1370      H1371   0.992       .  S
C1373      C1378   1.410       .  A
C1374      C1375   1.402       .  A
C1374      H1379   1.084       .  S
C1375      O1380   1.372       .  S
C1376      C1377   1.407   1_455  A
C1377      C1378   1.402       .  A
C1377      H1381   1.083       .  S
C1378      O1382   1.372       .  S
O1380      H1384   0.992       .  S
O1382      H1383   0.992       .  S
C1385      C1386   1.404   1_455  A
C1386      C1387   1.399       .  A
C1386      H1391   1.084       .  S
C1387      C1388   1.405       .  A
C1387      O1392   1.372       .  S
C1389      C1390   1.406       .  A
C1389      H1393   1.083       .  S
C1390      O1394   1.371       .  S
O1392      H1396   0.992       .  S
O1394      H1395   0.992       .  S
C1397      C1402   1.409       .  A
C1398      C1399   1.398       .  A
C1398      H1403   1.084       .  S
C1399      O1404   1.372       .  S
C1400      C1401   1.407       .  A
C1401      C1402   1.407       .  A
C1401      H1405   1.083       .  S
C1402      O1406   1.371       .  S
O1404      H1408   0.992       .  S
O1406      H1407   0.992       .  S
C1409      C1414   1.412       .  A
C1410      C1411   1.399       .  A
C1410      H1415   1.083       .  S
C1411      O1416   1.373       .  S
C1412      C1413   1.407       .  A
C1413      C1414   1.406       .  A
C1413      H1417   1.083       .  S
C1414      O1418   1.371       .  S
O1416      H1420   0.992       .  S
O1418      H1419   0.992       .  S
C1421      C1426   1.409   1_455  A
C1422      C1423   1.401       .  A
C1422      H1427   1.084       .  S
C1423      O1428   1.372       .  S
C1424      C1425   1.408   1_455  A
C1425      C1426   1.404       .  A
C1425      H1429   1.083       .  S
C1426      O1430   1.372       .  S
O1428      H1432   0.992       .  S
O1430      H1431   0.992       .  S
C1433      C1438   1.409       .  A
C1434      C1435   1.395       .  A
C1434      H1439   1.084       .  S
C1435      O1440   1.373       .  S
C1436      C1437   1.407       .  A
C1437      C1438   1.402       .  A
C1437      H1441   1.083       .  S
C1438      O1442   1.371       .  S
O1440      H1444   0.992       .  S
O1442      H1443   0.992       .  S
C1445      C1446   1.404       .  A
C1446      C1447   1.394       .  A
C1446      H1451   1.084       .  S
C1447      C1448   1.403       .  A
C1447      O1452   1.372       .  S
C1449      C1450   1.399       .  A
C1449      H1453   1.084       .  S
C1450      O1454   1.372       .  S
O1452      H1456   0.992       .  S
O1454      H1455   0.992       .  S
C1457      C1458   1.402       .  A
C1458      C1459   1.401       .  A
C1458      H1463   1.083       .  S
C1459      O1464   1.373       .  S
C1460      C1461   1.401   1_545  A
C1461      C1462   1.394       .  A
C1461      H1465   1.083       .  S
C1462      O1466   1.372       .  S
O1464      H1468   0.992       .  S
O1466      H1467   0.992       .  S
C1469      C1470   1.404   1_545  A
C1470      C1471   1.401       .  A
C1470      H1475   1.083       .  S
C1471      C1472   1.412   1_565  A
C1471      O1476   1.372       .  S
C1473      C1474   1.391       .  A
C1473      H1477   1.084       .  S
C1474      O1478   1.373       .  S
O1476      H1480   0.992       .  S
O1478      H1479   0.992       .  S
